version 2
run General-0-20230111-10:58:44-27713
attr configname General
attr datetime 20230111-10:58:44
attr experiment General
attr inifile omnetpp.ini
attr iterationvars ""
attr iterationvarsf ""
attr measurement ""
attr network RSUExampleScenario
attr processid 27713
attr repetition 0
attr replication #0
attr resultdir results
attr runnumber 0
attr seedset 0
param *.playgroundSizeX 35000m
param *.playgroundSizeY 35000m
param *.playgroundSizeZ 50m
param *.annotations.draw true
param *.manager.updateInterval 1s
param *.manager.host "\"localhost\""
param *.manager.port 9999
param *.manager.autoShutdown true
param *.manager.launchConfig "xmldoc(\"cologne.launchd.xml\")"
param *.rsu[0].mobility.x 13000
param *.rsu[0].mobility.y 18000
param *.rsu[0].mobility.z 0
param *.rsu[1].mobility.x 15000
param *.rsu[1].mobility.y 21000
param *.rsu[1].mobility.z 0
param *.rsu[2].mobility.x 17000
param *.rsu[2].mobility.y 18000
param *.rsu[2].mobility.z 34
param *.rsu[3].mobility.x 18000
param *.rsu[3].mobility.y 21000
param *.rsu[3].mobility.z 0
param *.rsu[4].mobility.x 13000
param *.rsu[4].mobility.y 15000
param *.rsu[4].mobility.z 0
param *.rsu[5].mobility.x 20000
param *.rsu[5].mobility.y 16000
param *.rsu[5].mobility.z 34
param *.rsu[*].applType "\"TraCIDemoRSU11p\""
param *.rsu[*].appl.headerLength "80 bit"
param *.rsu[*].appl.sendBeacons false
param *.rsu[*].appl.dataOnSch false
param *.rsu[*].appl.beaconInterval 1s
param *.rsu[*].appl.beaconUserPriority 7
param *.rsu[*].appl.dataUserPriority 5
param *.rsu[*].nic.phy80211p.antennaOffsetZ "0 m"
param *.connectionManager.sendDirect true
param *.connectionManager.maxInterfDist 400m
param *.connectionManager.drawMaxIntfDist true
param *.**.nic.mac1609_4.useServiceChannel false
param *.**.nic.mac1609_4.txPower 120mW
param *.**.nic.mac1609_4.bitrate 6Mbps
param *.**.nic.phy80211p.minPowerLevel -220dBm
param *.**.nic.phy80211p.useNoiseFloor false
param *.**.nic.phy80211p.noiseFloor -98dBm
param *.**.nic.phy80211p.decider "xmldoc(\"config.xml\")"
param *.**.nic.phy80211p.analogueModels "xmldoc(\"config.xml\")"
param *.**.nic.phy80211p.usePropagationDelay true
param *.**.nic.phy80211p.antenna "xmldoc(\"antenna.xml\", \"/root/Antenna[@id='monopole']\")"
param *.node[*].nic.phy80211p.antennaOffsetY "0 m"
param *.node[*].nic.phy80211p.antennaOffsetZ "1.895 m"
param *.node[*].applType "\"TraCIDemo11p\""
param *.node[*].appl.headerLength "80 bit"
param *.node[*].appl.sendBeacons false
param *.node[*].appl.dataOnSch false
param *.node[*].appl.beaconInterval 5s
param *.node[*].veinsmobility.x 0
param *.node[*].veinsmobility.y 0
param *.node[*].veinsmobility.z 0
param *.node[*].veinsmobility.setHostSpeed false
param *.node[*0].veinsmobility.accidentCount 0
param *.node[*0].veinsmobility.accidentStart 73s
param *.node[*0].veinsmobility.accidentDuration 50s

scalar RSUExampleScenario.node[115].appl generatedWSMs 67
scalar RSUExampleScenario.node[115].appl receivedWSMs 96
scalar RSUExampleScenario.node[115].appl generatedBSMs 0
scalar RSUExampleScenario.node[115].appl receivedBSMs 0
scalar RSUExampleScenario.node[115].appl generatedWSAs 0
scalar RSUExampleScenario.node[115].appl receivedWSAs 0
scalar RSUExampleScenario.node[115].nic.phy80211p busyTime 0.00033241791044776
scalar RSUExampleScenario.node[115].nic.mac1609_4 ReceivedUnicastPackets 0
scalar RSUExampleScenario.node[115].nic.mac1609_4 ReceivedBroadcasts 96
scalar RSUExampleScenario.node[115].nic.mac1609_4 SentPackets 66
scalar RSUExampleScenario.node[115].nic.mac1609_4 SentAcknowledgements 0
scalar RSUExampleScenario.node[115].nic.mac1609_4 SNIRLostPackets 0
scalar RSUExampleScenario.node[115].nic.mac1609_4 RXTXLostPackets 0
scalar RSUExampleScenario.node[115].nic.mac1609_4 TotalLostPackets 0
scalar RSUExampleScenario.node[115].nic.mac1609_4 DroppedPacketsInMac 0
scalar RSUExampleScenario.node[115].nic.mac1609_4 TooLittleTime 0
scalar RSUExampleScenario.node[115].nic.mac1609_4 TimesIntoBackoff 66
scalar RSUExampleScenario.node[115].nic.mac1609_4 SlotsBackoff 109
scalar RSUExampleScenario.node[115].nic.mac1609_4 NumInternalContention 0
scalar RSUExampleScenario.node[115].nic.mac1609_4 totalBusyTime 0.03765
scalar RSUExampleScenario.node[115].veinsmobility startTime 24
scalar RSUExampleScenario.node[115].veinsmobility totalTime 66
scalar RSUExampleScenario.node[115].veinsmobility stopTime 91
scalar RSUExampleScenario.node[115].veinsmobility minSpeed 2.2041026292834
scalar RSUExampleScenario.node[115].veinsmobility maxSpeed 14.514892997638
scalar RSUExampleScenario.node[115].veinsmobility totalDistance 736.28840020067
scalar RSUExampleScenario.node[115].veinsmobility totalCO2Emission 224.18106688839
scalar RSUExampleScenario.node[29].appl generatedWSMs 87
scalar RSUExampleScenario.node[29].appl receivedWSMs 60
scalar RSUExampleScenario.node[29].appl generatedBSMs 0
scalar RSUExampleScenario.node[29].appl receivedBSMs 0
scalar RSUExampleScenario.node[29].appl generatedWSAs 0
scalar RSUExampleScenario.node[29].appl receivedWSAs 0
scalar RSUExampleScenario.node[29].nic.phy80211p busyTime 0.00016
scalar RSUExampleScenario.node[29].nic.mac1609_4 ReceivedUnicastPackets 0
scalar RSUExampleScenario.node[29].nic.mac1609_4 ReceivedBroadcasts 60
scalar RSUExampleScenario.node[29].nic.mac1609_4 SentPackets 86
scalar RSUExampleScenario.node[29].nic.mac1609_4 SentAcknowledgements 0
scalar RSUExampleScenario.node[29].nic.mac1609_4 SNIRLostPackets 0
scalar RSUExampleScenario.node[29].nic.mac1609_4 RXTXLostPackets 0
scalar RSUExampleScenario.node[29].nic.mac1609_4 TotalLostPackets 0
scalar RSUExampleScenario.node[29].nic.mac1609_4 DroppedPacketsInMac 0
scalar RSUExampleScenario.node[29].nic.mac1609_4 TooLittleTime 0
scalar RSUExampleScenario.node[29].nic.mac1609_4 TimesIntoBackoff 86
scalar RSUExampleScenario.node[29].nic.mac1609_4 SlotsBackoff 104
scalar RSUExampleScenario.node[29].nic.mac1609_4 NumInternalContention 0
scalar RSUExampleScenario.node[29].nic.mac1609_4 totalBusyTime 0.033958
scalar RSUExampleScenario.node[29].veinsmobility startTime 6
scalar RSUExampleScenario.node[29].veinsmobility totalTime 86
scalar RSUExampleScenario.node[29].veinsmobility stopTime 93
scalar RSUExampleScenario.node[29].veinsmobility minSpeed 2.2169354937272
scalar RSUExampleScenario.node[29].veinsmobility maxSpeed 16.15447476964
scalar RSUExampleScenario.node[29].veinsmobility totalDistance 1195.8297382887
scalar RSUExampleScenario.node[29].veinsmobility totalCO2Emission 261.26828127152
scalar RSUExampleScenario.node[30].appl generatedWSMs 87
scalar RSUExampleScenario.node[30].appl receivedWSMs 100
scalar RSUExampleScenario.node[30].appl generatedBSMs 0
scalar RSUExampleScenario.node[30].appl receivedBSMs 0
scalar RSUExampleScenario.node[30].appl generatedWSAs 0
scalar RSUExampleScenario.node[30].appl receivedWSAs 0
scalar RSUExampleScenario.node[30].nic.phy80211p busyTime 0.00026666666666667
scalar RSUExampleScenario.node[30].nic.mac1609_4 ReceivedUnicastPackets 0
scalar RSUExampleScenario.node[30].nic.mac1609_4 ReceivedBroadcasts 100
scalar RSUExampleScenario.node[30].nic.mac1609_4 SentPackets 86
scalar RSUExampleScenario.node[30].nic.mac1609_4 SentAcknowledgements 0
scalar RSUExampleScenario.node[30].nic.mac1609_4 SNIRLostPackets 0
scalar RSUExampleScenario.node[30].nic.mac1609_4 RXTXLostPackets 0
scalar RSUExampleScenario.node[30].nic.mac1609_4 TotalLostPackets 0
scalar RSUExampleScenario.node[30].nic.mac1609_4 DroppedPacketsInMac 0
scalar RSUExampleScenario.node[30].nic.mac1609_4 TooLittleTime 0
scalar RSUExampleScenario.node[30].nic.mac1609_4 TimesIntoBackoff 87
scalar RSUExampleScenario.node[30].nic.mac1609_4 SlotsBackoff 137
scalar RSUExampleScenario.node[30].nic.mac1609_4 NumInternalContention 0
scalar RSUExampleScenario.node[30].nic.mac1609_4 totalBusyTime 0.043238
scalar RSUExampleScenario.node[30].veinsmobility startTime 7
scalar RSUExampleScenario.node[30].veinsmobility totalTime 86
scalar RSUExampleScenario.node[30].veinsmobility stopTime 94
scalar RSUExampleScenario.node[30].veinsmobility minSpeed 2.0367762609618
scalar RSUExampleScenario.node[30].veinsmobility maxSpeed 13.293506632475
scalar RSUExampleScenario.node[30].veinsmobility totalDistance 789.28651489433
scalar RSUExampleScenario.node[30].veinsmobility totalCO2Emission 197.89801806617
scalar RSUExampleScenario.node[68].appl generatedWSMs 119
scalar RSUExampleScenario.node[68].appl receivedWSMs 67
scalar RSUExampleScenario.node[68].appl generatedBSMs 0
scalar RSUExampleScenario.node[68].appl receivedBSMs 0
scalar RSUExampleScenario.node[68].appl generatedWSAs 0
scalar RSUExampleScenario.node[68].appl receivedWSAs 0
scalar RSUExampleScenario.node[68].nic.phy80211p busyTime 0.0001306218487395
scalar RSUExampleScenario.node[68].nic.mac1609_4 ReceivedUnicastPackets 0
scalar RSUExampleScenario.node[68].nic.mac1609_4 ReceivedBroadcasts 67
scalar RSUExampleScenario.node[68].nic.mac1609_4 SentPackets 118
scalar RSUExampleScenario.node[68].nic.mac1609_4 SentAcknowledgements 0
scalar RSUExampleScenario.node[68].nic.mac1609_4 SNIRLostPackets 0
scalar RSUExampleScenario.node[68].nic.mac1609_4 RXTXLostPackets 0
scalar RSUExampleScenario.node[68].nic.mac1609_4 TotalLostPackets 0
scalar RSUExampleScenario.node[68].nic.mac1609_4 DroppedPacketsInMac 0
scalar RSUExampleScenario.node[68].nic.mac1609_4 TooLittleTime 0
scalar RSUExampleScenario.node[68].nic.mac1609_4 TimesIntoBackoff 118
scalar RSUExampleScenario.node[68].nic.mac1609_4 SlotsBackoff 166
scalar RSUExampleScenario.node[68].nic.mac1609_4 NumInternalContention 0
scalar RSUExampleScenario.node[68].nic.mac1609_4 totalBusyTime 0.043038
scalar RSUExampleScenario.node[68].veinsmobility startTime 15
scalar RSUExampleScenario.node[68].veinsmobility totalTime 118
scalar RSUExampleScenario.node[68].veinsmobility stopTime 134
scalar RSUExampleScenario.node[68].veinsmobility minSpeed 1.4771120201563
scalar RSUExampleScenario.node[68].veinsmobility maxSpeed 14.622916629671
scalar RSUExampleScenario.node[68].veinsmobility totalDistance 1428.7059439338
scalar RSUExampleScenario.node[68].veinsmobility totalCO2Emission 385.35698971998
scalar RSUExampleScenario.node[90].appl generatedWSMs 156
scalar RSUExampleScenario.node[90].appl receivedWSMs 108
scalar RSUExampleScenario.node[90].appl generatedBSMs 0
scalar RSUExampleScenario.node[90].appl receivedBSMs 0
scalar RSUExampleScenario.node[90].appl generatedWSAs 0
scalar RSUExampleScenario.node[90].appl receivedWSAs 0
scalar RSUExampleScenario.node[90].nic.phy80211p busyTime 0.00016061538461538
scalar RSUExampleScenario.node[90].nic.mac1609_4 ReceivedUnicastPackets 0
scalar RSUExampleScenario.node[90].nic.mac1609_4 ReceivedBroadcasts 108
scalar RSUExampleScenario.node[90].nic.mac1609_4 SentPackets 155
scalar RSUExampleScenario.node[90].nic.mac1609_4 SentAcknowledgements 0
scalar RSUExampleScenario.node[90].nic.mac1609_4 SNIRLostPackets 0
scalar RSUExampleScenario.node[90].nic.mac1609_4 RXTXLostPackets 0
scalar RSUExampleScenario.node[90].nic.mac1609_4 TotalLostPackets 0
scalar RSUExampleScenario.node[90].nic.mac1609_4 DroppedPacketsInMac 0
scalar RSUExampleScenario.node[90].nic.mac1609_4 TooLittleTime 0
scalar RSUExampleScenario.node[90].nic.mac1609_4 TimesIntoBackoff 156
scalar RSUExampleScenario.node[90].nic.mac1609_4 SlotsBackoff 242
scalar RSUExampleScenario.node[90].nic.mac1609_4 NumInternalContention 0
scalar RSUExampleScenario.node[90].nic.mac1609_4 totalBusyTime 0.061171
scalar RSUExampleScenario.node[90].veinsmobility startTime 19
scalar RSUExampleScenario.node[90].veinsmobility totalTime 155
scalar RSUExampleScenario.node[90].veinsmobility stopTime 175
scalar RSUExampleScenario.node[90].veinsmobility minSpeed 2.5007992214756
scalar RSUExampleScenario.node[90].veinsmobility maxSpeed 23.161774877414
scalar RSUExampleScenario.node[90].veinsmobility totalDistance 2565.0313399494
scalar RSUExampleScenario.node[90].veinsmobility totalCO2Emission 522.89262646781
scalar RSUExampleScenario.node[6].appl generatedWSMs 205
scalar RSUExampleScenario.node[6].appl receivedWSMs 73
scalar RSUExampleScenario.node[6].appl generatedBSMs 0
scalar RSUExampleScenario.node[6].appl receivedBSMs 0
scalar RSUExampleScenario.node[6].appl generatedWSAs 0
scalar RSUExampleScenario.node[6].appl receivedWSAs 0
scalar RSUExampleScenario.node[6].nic.phy80211p busyTime 8.3746341463415e-05
scalar RSUExampleScenario.node[6].nic.mac1609_4 ReceivedUnicastPackets 0
scalar RSUExampleScenario.node[6].nic.mac1609_4 ReceivedBroadcasts 73
scalar RSUExampleScenario.node[6].nic.mac1609_4 SentPackets 204
scalar RSUExampleScenario.node[6].nic.mac1609_4 SentAcknowledgements 0
scalar RSUExampleScenario.node[6].nic.mac1609_4 SNIRLostPackets 1
scalar RSUExampleScenario.node[6].nic.mac1609_4 RXTXLostPackets 0
scalar RSUExampleScenario.node[6].nic.mac1609_4 TotalLostPackets 1
scalar RSUExampleScenario.node[6].nic.mac1609_4 DroppedPacketsInMac 0
scalar RSUExampleScenario.node[6].nic.mac1609_4 TooLittleTime 0
scalar RSUExampleScenario.node[6].nic.mac1609_4 TimesIntoBackoff 204
scalar RSUExampleScenario.node[6].nic.mac1609_4 SlotsBackoff 328
scalar RSUExampleScenario.node[6].nic.mac1609_4 NumInternalContention 0
scalar RSUExampleScenario.node[6].nic.mac1609_4 totalBusyTime 0.064468
scalar RSUExampleScenario.node[6].veinsmobility startTime 2
scalar RSUExampleScenario.node[6].veinsmobility totalTime 204
scalar RSUExampleScenario.node[6].veinsmobility stopTime 207
scalar RSUExampleScenario.node[6].veinsmobility minSpeed 1.528189688758
scalar RSUExampleScenario.node[6].veinsmobility maxSpeed 16.423108123642
scalar RSUExampleScenario.node[6].veinsmobility totalDistance 2964.1198958321
scalar RSUExampleScenario.node[6].veinsmobility totalCO2Emission 638.68859574956
scalar RSUExampleScenario.node[66].appl generatedWSMs 198
scalar RSUExampleScenario.node[66].appl receivedWSMs 238
scalar RSUExampleScenario.node[66].appl generatedBSMs 0
scalar RSUExampleScenario.node[66].appl receivedBSMs 0
scalar RSUExampleScenario.node[66].appl generatedWSAs 0
scalar RSUExampleScenario.node[66].appl receivedWSAs 0
scalar RSUExampleScenario.node[66].nic.phy80211p busyTime 0.00027886868686869
scalar RSUExampleScenario.node[66].nic.mac1609_4 ReceivedUnicastPackets 0
scalar RSUExampleScenario.node[66].nic.mac1609_4 ReceivedBroadcasts 238
scalar RSUExampleScenario.node[66].nic.mac1609_4 SentPackets 197
scalar RSUExampleScenario.node[66].nic.mac1609_4 SentAcknowledgements 0
scalar RSUExampleScenario.node[66].nic.mac1609_4 SNIRLostPackets 0
scalar RSUExampleScenario.node[66].nic.mac1609_4 RXTXLostPackets 0
scalar RSUExampleScenario.node[66].nic.mac1609_4 TotalLostPackets 0
scalar RSUExampleScenario.node[66].nic.mac1609_4 DroppedPacketsInMac 0
scalar RSUExampleScenario.node[66].nic.mac1609_4 TooLittleTime 0
scalar RSUExampleScenario.node[66].nic.mac1609_4 TimesIntoBackoff 197
scalar RSUExampleScenario.node[66].nic.mac1609_4 SlotsBackoff 298
scalar RSUExampleScenario.node[66].nic.mac1609_4 NumInternalContention 0
scalar RSUExampleScenario.node[66].nic.mac1609_4 totalBusyTime 0.101117
scalar RSUExampleScenario.node[66].veinsmobility startTime 14
scalar RSUExampleScenario.node[66].veinsmobility totalTime 197
scalar RSUExampleScenario.node[66].veinsmobility stopTime 212
scalar RSUExampleScenario.node[66].veinsmobility minSpeed 1.6346639127936
scalar RSUExampleScenario.node[66].veinsmobility maxSpeed 14.789615543464
scalar RSUExampleScenario.node[66].veinsmobility totalDistance 1759.5414256129
scalar RSUExampleScenario.node[66].veinsmobility totalCO2Emission 449.29763245811
scalar RSUExampleScenario.node[19].appl generatedWSMs 261
scalar RSUExampleScenario.node[19].appl receivedWSMs 72
scalar RSUExampleScenario.node[19].appl generatedBSMs 0
scalar RSUExampleScenario.node[19].appl receivedBSMs 0
scalar RSUExampleScenario.node[19].appl generatedWSAs 0
scalar RSUExampleScenario.node[19].appl receivedWSAs 0
scalar RSUExampleScenario.node[19].nic.phy80211p busyTime 6.4e-05
scalar RSUExampleScenario.node[19].nic.mac1609_4 ReceivedUnicastPackets 0
scalar RSUExampleScenario.node[19].nic.mac1609_4 ReceivedBroadcasts 72
scalar RSUExampleScenario.node[19].nic.mac1609_4 SentPackets 260
scalar RSUExampleScenario.node[19].nic.mac1609_4 SentAcknowledgements 0
scalar RSUExampleScenario.node[19].nic.mac1609_4 SNIRLostPackets 0
scalar RSUExampleScenario.node[19].nic.mac1609_4 RXTXLostPackets 1
scalar RSUExampleScenario.node[19].nic.mac1609_4 TotalLostPackets 1
scalar RSUExampleScenario.node[19].nic.mac1609_4 DroppedPacketsInMac 0
scalar RSUExampleScenario.node[19].nic.mac1609_4 TooLittleTime 0
scalar RSUExampleScenario.node[19].nic.mac1609_4 TimesIntoBackoff 260
scalar RSUExampleScenario.node[19].nic.mac1609_4 SlotsBackoff 390
scalar RSUExampleScenario.node[19].nic.mac1609_4 NumInternalContention 0
scalar RSUExampleScenario.node[19].nic.mac1609_4 totalBusyTime 0.077284
scalar RSUExampleScenario.node[19].veinsmobility startTime 4
scalar RSUExampleScenario.node[19].veinsmobility totalTime 260
scalar RSUExampleScenario.node[19].veinsmobility stopTime 265
scalar RSUExampleScenario.node[19].veinsmobility minSpeed 2.1050269616535
scalar RSUExampleScenario.node[19].veinsmobility maxSpeed 16.371116335602
scalar RSUExampleScenario.node[19].veinsmobility totalDistance 3660.0524868135
scalar RSUExampleScenario.node[19].veinsmobility totalCO2Emission 814.61581466294
scalar RSUExampleScenario.node[72].appl generatedWSMs 266
scalar RSUExampleScenario.node[72].appl receivedWSMs 201
scalar RSUExampleScenario.node[72].appl generatedBSMs 0
scalar RSUExampleScenario.node[72].appl receivedBSMs 0
scalar RSUExampleScenario.node[72].appl generatedWSAs 0
scalar RSUExampleScenario.node[72].appl receivedWSAs 0
scalar RSUExampleScenario.node[72].nic.phy80211p busyTime 0.00017530827067669
scalar RSUExampleScenario.node[72].nic.mac1609_4 ReceivedUnicastPackets 0
scalar RSUExampleScenario.node[72].nic.mac1609_4 ReceivedBroadcasts 201
scalar RSUExampleScenario.node[72].nic.mac1609_4 SentPackets 265
scalar RSUExampleScenario.node[72].nic.mac1609_4 SentAcknowledgements 0
scalar RSUExampleScenario.node[72].nic.mac1609_4 SNIRLostPackets 0
scalar RSUExampleScenario.node[72].nic.mac1609_4 RXTXLostPackets 0
scalar RSUExampleScenario.node[72].nic.mac1609_4 TotalLostPackets 0
scalar RSUExampleScenario.node[72].nic.mac1609_4 DroppedPacketsInMac 0
scalar RSUExampleScenario.node[72].nic.mac1609_4 TooLittleTime 0
scalar RSUExampleScenario.node[72].nic.mac1609_4 TimesIntoBackoff 265
scalar RSUExampleScenario.node[72].nic.mac1609_4 SlotsBackoff 426
scalar RSUExampleScenario.node[72].nic.mac1609_4 NumInternalContention 0
scalar RSUExampleScenario.node[72].nic.mac1609_4 totalBusyTime 0.108377
scalar RSUExampleScenario.node[72].veinsmobility startTime 15
scalar RSUExampleScenario.node[72].veinsmobility totalTime 265
scalar RSUExampleScenario.node[72].veinsmobility stopTime 281
scalar RSUExampleScenario.node[72].veinsmobility minSpeed 0
scalar RSUExampleScenario.node[72].veinsmobility maxSpeed 14.032876962327
scalar RSUExampleScenario.node[72].veinsmobility totalDistance 2147.4388375202
scalar RSUExampleScenario.node[72].veinsmobility totalCO2Emission 535.43129261007
scalar RSUExampleScenario.node[67].appl generatedWSMs 281
scalar RSUExampleScenario.node[67].appl receivedWSMs 231
scalar RSUExampleScenario.node[67].appl generatedBSMs 0
scalar RSUExampleScenario.node[67].appl receivedBSMs 0
scalar RSUExampleScenario.node[67].appl generatedWSAs 0
scalar RSUExampleScenario.node[67].appl receivedWSAs 0
scalar RSUExampleScenario.node[67].nic.phy80211p busyTime 0.00019347292418773
scalar RSUExampleScenario.node[67].nic.mac1609_4 ReceivedUnicastPackets 0
scalar RSUExampleScenario.node[67].nic.mac1609_4 ReceivedBroadcasts 231
scalar RSUExampleScenario.node[67].nic.mac1609_4 SentPackets 280
scalar RSUExampleScenario.node[67].nic.mac1609_4 SentAcknowledgements 0
scalar RSUExampleScenario.node[67].nic.mac1609_4 SNIRLostPackets 0
scalar RSUExampleScenario.node[67].nic.mac1609_4 RXTXLostPackets 0
scalar RSUExampleScenario.node[67].nic.mac1609_4 TotalLostPackets 0
scalar RSUExampleScenario.node[67].nic.mac1609_4 DroppedPacketsInMac 0
scalar RSUExampleScenario.node[67].nic.mac1609_4 TooLittleTime 0
scalar RSUExampleScenario.node[67].nic.mac1609_4 TimesIntoBackoff 282
scalar RSUExampleScenario.node[67].nic.mac1609_4 SlotsBackoff 408
scalar RSUExampleScenario.node[67].nic.mac1609_4 NumInternalContention 0
scalar RSUExampleScenario.node[67].nic.mac1609_4 totalBusyTime 0.118832
scalar RSUExampleScenario.node[67].veinsmobility startTime 14
scalar RSUExampleScenario.node[67].veinsmobility totalTime 276
scalar RSUExampleScenario.node[67].veinsmobility stopTime 291
scalar RSUExampleScenario.node[67].veinsmobility minSpeed 0
scalar RSUExampleScenario.node[67].veinsmobility maxSpeed 15.380915762802
scalar RSUExampleScenario.node[67].veinsmobility totalDistance 3267.078503152
scalar RSUExampleScenario.node[67].veinsmobility totalCO2Emission 771.66426509527
scalar RSUExampleScenario.node[9].appl generatedWSMs 299
scalar RSUExampleScenario.node[9].appl receivedWSMs 230
scalar RSUExampleScenario.node[9].appl generatedBSMs 0
scalar RSUExampleScenario.node[9].appl receivedBSMs 0
scalar RSUExampleScenario.node[9].appl generatedWSAs 0
scalar RSUExampleScenario.node[9].appl receivedWSAs 0
scalar RSUExampleScenario.node[9].nic.phy80211p busyTime 0.00017846153846154
scalar RSUExampleScenario.node[9].nic.mac1609_4 ReceivedUnicastPackets 0
scalar RSUExampleScenario.node[9].nic.mac1609_4 ReceivedBroadcasts 230
scalar RSUExampleScenario.node[9].nic.mac1609_4 SentPackets 298
scalar RSUExampleScenario.node[9].nic.mac1609_4 SentAcknowledgements 0
scalar RSUExampleScenario.node[9].nic.mac1609_4 SNIRLostPackets 0
scalar RSUExampleScenario.node[9].nic.mac1609_4 RXTXLostPackets 0
scalar RSUExampleScenario.node[9].nic.mac1609_4 TotalLostPackets 0
scalar RSUExampleScenario.node[9].nic.mac1609_4 DroppedPacketsInMac 0
scalar RSUExampleScenario.node[9].nic.mac1609_4 TooLittleTime 0
scalar RSUExampleScenario.node[9].nic.mac1609_4 TimesIntoBackoff 298
scalar RSUExampleScenario.node[9].nic.mac1609_4 SlotsBackoff 459
scalar RSUExampleScenario.node[9].nic.mac1609_4 NumInternalContention 0
scalar RSUExampleScenario.node[9].nic.mac1609_4 totalBusyTime 0.122794
scalar RSUExampleScenario.node[9].veinsmobility startTime 2
scalar RSUExampleScenario.node[9].veinsmobility totalTime 298
scalar RSUExampleScenario.node[9].veinsmobility stopTime 301
scalar RSUExampleScenario.node[9].veinsmobility minSpeed 0
scalar RSUExampleScenario.node[9].veinsmobility maxSpeed 15.997777602758
scalar RSUExampleScenario.node[9].veinsmobility totalDistance 2555.1736758683
scalar RSUExampleScenario.node[9].veinsmobility totalCO2Emission 752.00402193491
scalar RSUExampleScenario.node[127].appl generatedWSMs 275
scalar RSUExampleScenario.node[127].appl receivedWSMs 0
scalar RSUExampleScenario.node[127].appl generatedBSMs 0
scalar RSUExampleScenario.node[127].appl receivedBSMs 0
scalar RSUExampleScenario.node[127].appl generatedWSAs 0
scalar RSUExampleScenario.node[127].appl receivedWSAs 0
scalar RSUExampleScenario.node[127].nic.phy80211p busyTime 0
scalar RSUExampleScenario.node[127].nic.mac1609_4 ReceivedUnicastPackets 0
scalar RSUExampleScenario.node[127].nic.mac1609_4 ReceivedBroadcasts 0
scalar RSUExampleScenario.node[127].nic.mac1609_4 SentPackets 274
scalar RSUExampleScenario.node[127].nic.mac1609_4 SentAcknowledgements 0
scalar RSUExampleScenario.node[127].nic.mac1609_4 SNIRLostPackets 0
scalar RSUExampleScenario.node[127].nic.mac1609_4 RXTXLostPackets 0
scalar RSUExampleScenario.node[127].nic.mac1609_4 TotalLostPackets 0
scalar RSUExampleScenario.node[127].nic.mac1609_4 DroppedPacketsInMac 0
scalar RSUExampleScenario.node[127].nic.mac1609_4 TooLittleTime 0
scalar RSUExampleScenario.node[127].nic.mac1609_4 TimesIntoBackoff 274
scalar RSUExampleScenario.node[127].nic.mac1609_4 SlotsBackoff 412
scalar RSUExampleScenario.node[127].nic.mac1609_4 NumInternalContention 0
scalar RSUExampleScenario.node[127].nic.mac1609_4 totalBusyTime 0.063842
scalar RSUExampleScenario.node[127].veinsmobility startTime 26
scalar RSUExampleScenario.node[127].veinsmobility totalTime 274
scalar RSUExampleScenario.node[127].veinsmobility stopTime 301
scalar RSUExampleScenario.node[127].veinsmobility minSpeed 0
scalar RSUExampleScenario.node[127].veinsmobility maxSpeed 13.480975103316
scalar RSUExampleScenario.node[127].veinsmobility totalDistance 2862.3337179974
scalar RSUExampleScenario.node[127].veinsmobility totalCO2Emission 636.81282086367
scalar RSUExampleScenario.node[128].appl generatedWSMs 298
scalar RSUExampleScenario.node[128].appl receivedWSMs 127
scalar RSUExampleScenario.node[128].appl generatedBSMs 0
scalar RSUExampleScenario.node[128].appl receivedBSMs 0
scalar RSUExampleScenario.node[128].appl generatedWSAs 0
scalar RSUExampleScenario.node[128].appl receivedWSAs 0
scalar RSUExampleScenario.node[128].nic.phy80211p busyTime 9.8872483221476e-05
scalar RSUExampleScenario.node[128].nic.mac1609_4 ReceivedUnicastPackets 0
scalar RSUExampleScenario.node[128].nic.mac1609_4 ReceivedBroadcasts 127
scalar RSUExampleScenario.node[128].nic.mac1609_4 SentPackets 297
scalar RSUExampleScenario.node[128].nic.mac1609_4 SentAcknowledgements 0
scalar RSUExampleScenario.node[128].nic.mac1609_4 SNIRLostPackets 0
scalar RSUExampleScenario.node[128].nic.mac1609_4 RXTXLostPackets 1
scalar RSUExampleScenario.node[128].nic.mac1609_4 TotalLostPackets 1
scalar RSUExampleScenario.node[128].nic.mac1609_4 DroppedPacketsInMac 0
scalar RSUExampleScenario.node[128].nic.mac1609_4 TooLittleTime 0
scalar RSUExampleScenario.node[128].nic.mac1609_4 TimesIntoBackoff 297
scalar RSUExampleScenario.node[128].nic.mac1609_4 SlotsBackoff 441
scalar RSUExampleScenario.node[128].nic.mac1609_4 NumInternalContention 0
scalar RSUExampleScenario.node[128].nic.mac1609_4 totalBusyTime 0.098665
scalar RSUExampleScenario.node[128].veinsmobility startTime 26
scalar RSUExampleScenario.node[128].veinsmobility totalTime 297
scalar RSUExampleScenario.node[128].veinsmobility stopTime 324
scalar RSUExampleScenario.node[128].veinsmobility minSpeed 0
scalar RSUExampleScenario.node[128].veinsmobility maxSpeed 13.793153477681
scalar RSUExampleScenario.node[128].veinsmobility totalDistance 2442.0635084008
scalar RSUExampleScenario.node[128].veinsmobility totalCO2Emission 616.34644218975
scalar RSUExampleScenario.node[53].appl generatedWSMs 314
scalar RSUExampleScenario.node[53].appl receivedWSMs 115
scalar RSUExampleScenario.node[53].appl generatedBSMs 0
scalar RSUExampleScenario.node[53].appl receivedBSMs 0
scalar RSUExampleScenario.node[53].appl generatedWSAs 0
scalar RSUExampleScenario.node[53].appl receivedWSAs 0
scalar RSUExampleScenario.node[53].nic.phy80211p busyTime 8.4968152866242e-05
scalar RSUExampleScenario.node[53].nic.mac1609_4 ReceivedUnicastPackets 0
scalar RSUExampleScenario.node[53].nic.mac1609_4 ReceivedBroadcasts 115
scalar RSUExampleScenario.node[53].nic.mac1609_4 SentPackets 313
scalar RSUExampleScenario.node[53].nic.mac1609_4 SentAcknowledgements 0
scalar RSUExampleScenario.node[53].nic.mac1609_4 SNIRLostPackets 0
scalar RSUExampleScenario.node[53].nic.mac1609_4 RXTXLostPackets 0
scalar RSUExampleScenario.node[53].nic.mac1609_4 TotalLostPackets 0
scalar RSUExampleScenario.node[53].nic.mac1609_4 DroppedPacketsInMac 0
scalar RSUExampleScenario.node[53].nic.mac1609_4 TooLittleTime 0
scalar RSUExampleScenario.node[53].nic.mac1609_4 TimesIntoBackoff 314
scalar RSUExampleScenario.node[53].nic.mac1609_4 SlotsBackoff 492
scalar RSUExampleScenario.node[53].nic.mac1609_4 NumInternalContention 0
scalar RSUExampleScenario.node[53].nic.mac1609_4 totalBusyTime 0.099609
scalar RSUExampleScenario.node[53].veinsmobility startTime 12
scalar RSUExampleScenario.node[53].veinsmobility totalTime 313
scalar RSUExampleScenario.node[53].veinsmobility stopTime 326
scalar RSUExampleScenario.node[53].veinsmobility minSpeed 0
scalar RSUExampleScenario.node[53].veinsmobility maxSpeed 14.141374656056
scalar RSUExampleScenario.node[53].veinsmobility totalDistance 2696.2890057487
scalar RSUExampleScenario.node[53].veinsmobility totalCO2Emission 726.59712768534
scalar RSUExampleScenario.node[45].appl generatedWSMs 319
scalar RSUExampleScenario.node[45].appl receivedWSMs 296
scalar RSUExampleScenario.node[45].appl generatedBSMs 0
scalar RSUExampleScenario.node[45].appl receivedBSMs 0
scalar RSUExampleScenario.node[45].appl generatedWSAs 0
scalar RSUExampleScenario.node[45].appl receivedWSAs 0
scalar RSUExampleScenario.node[45].nic.phy80211p busyTime 0.00021527272727273
scalar RSUExampleScenario.node[45].nic.mac1609_4 ReceivedUnicastPackets 0
scalar RSUExampleScenario.node[45].nic.mac1609_4 ReceivedBroadcasts 296
scalar RSUExampleScenario.node[45].nic.mac1609_4 SentPackets 318
scalar RSUExampleScenario.node[45].nic.mac1609_4 SentAcknowledgements 0
scalar RSUExampleScenario.node[45].nic.mac1609_4 SNIRLostPackets 0
scalar RSUExampleScenario.node[45].nic.mac1609_4 RXTXLostPackets 0
scalar RSUExampleScenario.node[45].nic.mac1609_4 TotalLostPackets 0
scalar RSUExampleScenario.node[45].nic.mac1609_4 DroppedPacketsInMac 0
scalar RSUExampleScenario.node[45].nic.mac1609_4 TooLittleTime 0
scalar RSUExampleScenario.node[45].nic.mac1609_4 TimesIntoBackoff 319
scalar RSUExampleScenario.node[45].nic.mac1609_4 SlotsBackoff 534
scalar RSUExampleScenario.node[45].nic.mac1609_4 NumInternalContention 0
scalar RSUExampleScenario.node[45].nic.mac1609_4 totalBusyTime 0.142766
scalar RSUExampleScenario.node[45].veinsmobility startTime 10
scalar RSUExampleScenario.node[45].veinsmobility totalTime 318
scalar RSUExampleScenario.node[45].veinsmobility stopTime 329
scalar RSUExampleScenario.node[45].veinsmobility minSpeed 0
scalar RSUExampleScenario.node[45].veinsmobility maxSpeed 12.932172090985
scalar RSUExampleScenario.node[45].veinsmobility totalDistance 2079.2358880454
scalar RSUExampleScenario.node[45].veinsmobility totalCO2Emission 619.86114017718
scalar RSUExampleScenario.node[8].appl generatedWSMs 347
scalar RSUExampleScenario.node[8].appl receivedWSMs 316
scalar RSUExampleScenario.node[8].appl generatedBSMs 0
scalar RSUExampleScenario.node[8].appl receivedBSMs 0
scalar RSUExampleScenario.node[8].appl generatedWSAs 0
scalar RSUExampleScenario.node[8].appl receivedWSAs 0
scalar RSUExampleScenario.node[8].nic.phy80211p busyTime 0.00021625958702065
scalar RSUExampleScenario.node[8].nic.mac1609_4 ReceivedUnicastPackets 0
scalar RSUExampleScenario.node[8].nic.mac1609_4 ReceivedBroadcasts 316
scalar RSUExampleScenario.node[8].nic.mac1609_4 SentPackets 346
scalar RSUExampleScenario.node[8].nic.mac1609_4 SentAcknowledgements 0
scalar RSUExampleScenario.node[8].nic.mac1609_4 SNIRLostPackets 0
scalar RSUExampleScenario.node[8].nic.mac1609_4 RXTXLostPackets 0
scalar RSUExampleScenario.node[8].nic.mac1609_4 TotalLostPackets 0
scalar RSUExampleScenario.node[8].nic.mac1609_4 DroppedPacketsInMac 0
scalar RSUExampleScenario.node[8].nic.mac1609_4 TooLittleTime 0
scalar RSUExampleScenario.node[8].nic.mac1609_4 TimesIntoBackoff 349
scalar RSUExampleScenario.node[8].nic.mac1609_4 SlotsBackoff 515
scalar RSUExampleScenario.node[8].nic.mac1609_4 NumInternalContention 0
scalar RSUExampleScenario.node[8].nic.mac1609_4 totalBusyTime 0.15393
scalar RSUExampleScenario.node[8].veinsmobility startTime 2
scalar RSUExampleScenario.node[8].veinsmobility totalTime 338
scalar RSUExampleScenario.node[8].veinsmobility stopTime 341
scalar RSUExampleScenario.node[8].veinsmobility minSpeed 0
scalar RSUExampleScenario.node[8].veinsmobility maxSpeed 14.138576906802
scalar RSUExampleScenario.node[8].veinsmobility totalDistance 2855.0293699613
scalar RSUExampleScenario.node[8].veinsmobility totalCO2Emission 707.17786367639
scalar RSUExampleScenario.node[129].appl generatedWSMs 321
scalar RSUExampleScenario.node[129].appl receivedWSMs 523
scalar RSUExampleScenario.node[129].appl generatedBSMs 0
scalar RSUExampleScenario.node[129].appl receivedBSMs 0
scalar RSUExampleScenario.node[129].appl generatedWSAs 0
scalar RSUExampleScenario.node[129].appl receivedWSAs 0
scalar RSUExampleScenario.node[129].nic.phy80211p busyTime 0.00038016199376947
scalar RSUExampleScenario.node[129].nic.mac1609_4 ReceivedUnicastPackets 0
scalar RSUExampleScenario.node[129].nic.mac1609_4 ReceivedBroadcasts 523
scalar RSUExampleScenario.node[129].nic.mac1609_4 SentPackets 320
scalar RSUExampleScenario.node[129].nic.mac1609_4 SentAcknowledgements 0
scalar RSUExampleScenario.node[129].nic.mac1609_4 SNIRLostPackets 3
scalar RSUExampleScenario.node[129].nic.mac1609_4 RXTXLostPackets 0
scalar RSUExampleScenario.node[129].nic.mac1609_4 TotalLostPackets 3
scalar RSUExampleScenario.node[129].nic.mac1609_4 DroppedPacketsInMac 0
scalar RSUExampleScenario.node[129].nic.mac1609_4 TooLittleTime 0
scalar RSUExampleScenario.node[129].nic.mac1609_4 TimesIntoBackoff 322
scalar RSUExampleScenario.node[129].nic.mac1609_4 SlotsBackoff 497
scalar RSUExampleScenario.node[129].nic.mac1609_4 NumInternalContention 0
scalar RSUExampleScenario.node[129].nic.mac1609_4 totalBusyTime 0.196128
scalar RSUExampleScenario.node[129].veinsmobility startTime 27
scalar RSUExampleScenario.node[129].veinsmobility totalTime 320
scalar RSUExampleScenario.node[129].veinsmobility stopTime 348
scalar RSUExampleScenario.node[129].veinsmobility minSpeed 0
scalar RSUExampleScenario.node[129].veinsmobility maxSpeed 12.651143897592
scalar RSUExampleScenario.node[129].veinsmobility totalDistance 2331.8308296515
scalar RSUExampleScenario.node[129].veinsmobility totalCO2Emission 677.05577759546
scalar RSUExampleScenario.node[141].appl generatedWSMs 330
scalar RSUExampleScenario.node[141].appl receivedWSMs 106
scalar RSUExampleScenario.node[141].appl generatedBSMs 0
scalar RSUExampleScenario.node[141].appl receivedBSMs 0
scalar RSUExampleScenario.node[141].appl generatedWSAs 0
scalar RSUExampleScenario.node[141].appl receivedWSAs 0
scalar RSUExampleScenario.node[141].nic.phy80211p busyTime 7.7090909090909e-05
scalar RSUExampleScenario.node[141].nic.mac1609_4 ReceivedUnicastPackets 0
scalar RSUExampleScenario.node[141].nic.mac1609_4 ReceivedBroadcasts 106
scalar RSUExampleScenario.node[141].nic.mac1609_4 SentPackets 329
scalar RSUExampleScenario.node[141].nic.mac1609_4 SentAcknowledgements 0
scalar RSUExampleScenario.node[141].nic.mac1609_4 SNIRLostPackets 0
scalar RSUExampleScenario.node[141].nic.mac1609_4 RXTXLostPackets 0
scalar RSUExampleScenario.node[141].nic.mac1609_4 TotalLostPackets 0
scalar RSUExampleScenario.node[141].nic.mac1609_4 DroppedPacketsInMac 0
scalar RSUExampleScenario.node[141].nic.mac1609_4 TooLittleTime 0
scalar RSUExampleScenario.node[141].nic.mac1609_4 TimesIntoBackoff 329
scalar RSUExampleScenario.node[141].nic.mac1609_4 SlotsBackoff 494
scalar RSUExampleScenario.node[141].nic.mac1609_4 NumInternalContention 0
scalar RSUExampleScenario.node[141].nic.mac1609_4 totalBusyTime 0.101249
scalar RSUExampleScenario.node[141].veinsmobility startTime 29
scalar RSUExampleScenario.node[141].veinsmobility totalTime 318
scalar RSUExampleScenario.node[141].veinsmobility stopTime 348
scalar RSUExampleScenario.node[141].veinsmobility minSpeed 0
scalar RSUExampleScenario.node[141].veinsmobility maxSpeed 15.057302189364
scalar RSUExampleScenario.node[141].veinsmobility totalDistance 3588.136606269
scalar RSUExampleScenario.node[141].veinsmobility totalCO2Emission 837.43665602892
scalar RSUExampleScenario.node[109].appl generatedWSMs 340
scalar RSUExampleScenario.node[109].appl receivedWSMs 117
scalar RSUExampleScenario.node[109].appl generatedBSMs 0
scalar RSUExampleScenario.node[109].appl receivedBSMs 0
scalar RSUExampleScenario.node[109].appl generatedWSAs 0
scalar RSUExampleScenario.node[109].appl receivedWSAs 0
scalar RSUExampleScenario.node[109].nic.phy80211p busyTime 8.2504559270517e-05
scalar RSUExampleScenario.node[109].nic.mac1609_4 ReceivedUnicastPackets 0
scalar RSUExampleScenario.node[109].nic.mac1609_4 ReceivedBroadcasts 117
scalar RSUExampleScenario.node[109].nic.mac1609_4 SentPackets 339
scalar RSUExampleScenario.node[109].nic.mac1609_4 SentAcknowledgements 0
scalar RSUExampleScenario.node[109].nic.mac1609_4 SNIRLostPackets 0
scalar RSUExampleScenario.node[109].nic.mac1609_4 RXTXLostPackets 0
scalar RSUExampleScenario.node[109].nic.mac1609_4 TotalLostPackets 0
scalar RSUExampleScenario.node[109].nic.mac1609_4 DroppedPacketsInMac 0
scalar RSUExampleScenario.node[109].nic.mac1609_4 TooLittleTime 0
scalar RSUExampleScenario.node[109].nic.mac1609_4 TimesIntoBackoff 339
scalar RSUExampleScenario.node[109].nic.mac1609_4 SlotsBackoff 515
scalar RSUExampleScenario.node[109].nic.mac1609_4 NumInternalContention 0
scalar RSUExampleScenario.node[109].nic.mac1609_4 totalBusyTime 0.106131
scalar RSUExampleScenario.node[109].veinsmobility startTime 22
scalar RSUExampleScenario.node[109].veinsmobility totalTime 328
scalar RSUExampleScenario.node[109].veinsmobility stopTime 351
scalar RSUExampleScenario.node[109].veinsmobility minSpeed 1.9267319109989
scalar RSUExampleScenario.node[109].veinsmobility maxSpeed 15.371513684527
scalar RSUExampleScenario.node[109].veinsmobility totalDistance 3296.5041234507
scalar RSUExampleScenario.node[109].veinsmobility totalCO2Emission 697.62803413516
scalar RSUExampleScenario.node[104].appl generatedWSMs 333
scalar RSUExampleScenario.node[104].appl receivedWSMs 60
scalar RSUExampleScenario.node[104].appl generatedBSMs 0
scalar RSUExampleScenario.node[104].appl receivedBSMs 0
scalar RSUExampleScenario.node[104].appl generatedWSAs 0
scalar RSUExampleScenario.node[104].appl receivedWSAs 0
scalar RSUExampleScenario.node[104].nic.phy80211p busyTime 4.1801801801802e-05
scalar RSUExampleScenario.node[104].nic.mac1609_4 ReceivedUnicastPackets 0
scalar RSUExampleScenario.node[104].nic.mac1609_4 ReceivedBroadcasts 60
scalar RSUExampleScenario.node[104].nic.mac1609_4 SentPackets 332
scalar RSUExampleScenario.node[104].nic.mac1609_4 SentAcknowledgements 0
scalar RSUExampleScenario.node[104].nic.mac1609_4 SNIRLostPackets 0
scalar RSUExampleScenario.node[104].nic.mac1609_4 RXTXLostPackets 0
scalar RSUExampleScenario.node[104].nic.mac1609_4 TotalLostPackets 0
scalar RSUExampleScenario.node[104].nic.mac1609_4 DroppedPacketsInMac 0
scalar RSUExampleScenario.node[104].nic.mac1609_4 TooLittleTime 0
scalar RSUExampleScenario.node[104].nic.mac1609_4 TimesIntoBackoff 332
scalar RSUExampleScenario.node[104].nic.mac1609_4 SlotsBackoff 503
scalar RSUExampleScenario.node[104].nic.mac1609_4 NumInternalContention 0
scalar RSUExampleScenario.node[104].nic.mac1609_4 totalBusyTime 0.091276
scalar RSUExampleScenario.node[104].veinsmobility startTime 21
scalar RSUExampleScenario.node[104].veinsmobility totalTime 332
scalar RSUExampleScenario.node[104].veinsmobility stopTime 354
scalar RSUExampleScenario.node[104].veinsmobility minSpeed 0
scalar RSUExampleScenario.node[104].veinsmobility maxSpeed 16.018037713272
scalar RSUExampleScenario.node[104].veinsmobility totalDistance 2999.616193183
scalar RSUExampleScenario.node[104].veinsmobility totalCO2Emission 794.96190009778
scalar RSUExampleScenario.node[92].appl generatedWSMs 346
scalar RSUExampleScenario.node[92].appl receivedWSMs 21
scalar RSUExampleScenario.node[92].appl generatedBSMs 0
scalar RSUExampleScenario.node[92].appl receivedBSMs 0
scalar RSUExampleScenario.node[92].appl generatedWSAs 0
scalar RSUExampleScenario.node[92].appl receivedWSAs 0
scalar RSUExampleScenario.node[92].nic.phy80211p busyTime 1.4080924855491e-05
scalar RSUExampleScenario.node[92].nic.mac1609_4 ReceivedUnicastPackets 0
scalar RSUExampleScenario.node[92].nic.mac1609_4 ReceivedBroadcasts 21
scalar RSUExampleScenario.node[92].nic.mac1609_4 SentPackets 345
scalar RSUExampleScenario.node[92].nic.mac1609_4 SentAcknowledgements 0
scalar RSUExampleScenario.node[92].nic.mac1609_4 SNIRLostPackets 0
scalar RSUExampleScenario.node[92].nic.mac1609_4 RXTXLostPackets 0
scalar RSUExampleScenario.node[92].nic.mac1609_4 TotalLostPackets 0
scalar RSUExampleScenario.node[92].nic.mac1609_4 DroppedPacketsInMac 0
scalar RSUExampleScenario.node[92].nic.mac1609_4 TooLittleTime 0
scalar RSUExampleScenario.node[92].nic.mac1609_4 TimesIntoBackoff 345
scalar RSUExampleScenario.node[92].nic.mac1609_4 SlotsBackoff 538
scalar RSUExampleScenario.node[92].nic.mac1609_4 NumInternalContention 0
scalar RSUExampleScenario.node[92].nic.mac1609_4 totalBusyTime 0.085257
scalar RSUExampleScenario.node[92].veinsmobility startTime 19
scalar RSUExampleScenario.node[92].veinsmobility totalTime 345
scalar RSUExampleScenario.node[92].veinsmobility stopTime 365
scalar RSUExampleScenario.node[92].veinsmobility minSpeed 1.5842993312515
scalar RSUExampleScenario.node[92].veinsmobility maxSpeed 14.034444389348
scalar RSUExampleScenario.node[92].veinsmobility totalDistance 4261.2781729139
scalar RSUExampleScenario.node[92].veinsmobility totalCO2Emission 853.38458074615
scalar RSUExampleScenario.node[74].appl generatedWSMs 353
scalar RSUExampleScenario.node[74].appl receivedWSMs 77
scalar RSUExampleScenario.node[74].appl generatedBSMs 0
scalar RSUExampleScenario.node[74].appl receivedBSMs 0
scalar RSUExampleScenario.node[74].appl generatedWSAs 0
scalar RSUExampleScenario.node[74].appl receivedWSAs 0
scalar RSUExampleScenario.node[74].nic.phy80211p busyTime 5.0606232294617e-05
scalar RSUExampleScenario.node[74].nic.mac1609_4 ReceivedUnicastPackets 0
scalar RSUExampleScenario.node[74].nic.mac1609_4 ReceivedBroadcasts 77
scalar RSUExampleScenario.node[74].nic.mac1609_4 SentPackets 352
scalar RSUExampleScenario.node[74].nic.mac1609_4 SentAcknowledgements 0
scalar RSUExampleScenario.node[74].nic.mac1609_4 SNIRLostPackets 0
scalar RSUExampleScenario.node[74].nic.mac1609_4 RXTXLostPackets 0
scalar RSUExampleScenario.node[74].nic.mac1609_4 TotalLostPackets 0
scalar RSUExampleScenario.node[74].nic.mac1609_4 DroppedPacketsInMac 0
scalar RSUExampleScenario.node[74].nic.mac1609_4 TooLittleTime 0
scalar RSUExampleScenario.node[74].nic.mac1609_4 TimesIntoBackoff 352
scalar RSUExampleScenario.node[74].nic.mac1609_4 SlotsBackoff 548
scalar RSUExampleScenario.node[74].nic.mac1609_4 NumInternalContention 0
scalar RSUExampleScenario.node[74].nic.mac1609_4 totalBusyTime 0.09988
scalar RSUExampleScenario.node[74].veinsmobility startTime 16
scalar RSUExampleScenario.node[74].veinsmobility totalTime 352
scalar RSUExampleScenario.node[74].veinsmobility stopTime 369
scalar RSUExampleScenario.node[74].veinsmobility minSpeed 0
scalar RSUExampleScenario.node[74].veinsmobility maxSpeed 13.479939629437
scalar RSUExampleScenario.node[74].veinsmobility totalDistance 3254.3111776276
scalar RSUExampleScenario.node[74].veinsmobility totalCO2Emission 860.09912836047
scalar RSUExampleScenario.node[32].appl generatedWSMs 369
scalar RSUExampleScenario.node[32].appl receivedWSMs 420
scalar RSUExampleScenario.node[32].appl generatedBSMs 0
scalar RSUExampleScenario.node[32].appl receivedBSMs 0
scalar RSUExampleScenario.node[32].appl generatedWSAs 0
scalar RSUExampleScenario.node[32].appl receivedWSAs 0
scalar RSUExampleScenario.node[32].nic.phy80211p busyTime 0.00026406504065041
scalar RSUExampleScenario.node[32].nic.mac1609_4 ReceivedUnicastPackets 0
scalar RSUExampleScenario.node[32].nic.mac1609_4 ReceivedBroadcasts 420
scalar RSUExampleScenario.node[32].nic.mac1609_4 SentPackets 368
scalar RSUExampleScenario.node[32].nic.mac1609_4 SentAcknowledgements 0
scalar RSUExampleScenario.node[32].nic.mac1609_4 SNIRLostPackets 0
scalar RSUExampleScenario.node[32].nic.mac1609_4 RXTXLostPackets 0
scalar RSUExampleScenario.node[32].nic.mac1609_4 TotalLostPackets 0
scalar RSUExampleScenario.node[32].nic.mac1609_4 DroppedPacketsInMac 0
scalar RSUExampleScenario.node[32].nic.mac1609_4 TooLittleTime 0
scalar RSUExampleScenario.node[32].nic.mac1609_4 TimesIntoBackoff 370
scalar RSUExampleScenario.node[32].nic.mac1609_4 SlotsBackoff 554
scalar RSUExampleScenario.node[32].nic.mac1609_4 NumInternalContention 0
scalar RSUExampleScenario.node[32].nic.mac1609_4 totalBusyTime 0.183184
scalar RSUExampleScenario.node[32].veinsmobility startTime 7
scalar RSUExampleScenario.node[32].veinsmobility totalTime 368
scalar RSUExampleScenario.node[32].veinsmobility stopTime 376
scalar RSUExampleScenario.node[32].veinsmobility minSpeed 0
scalar RSUExampleScenario.node[32].veinsmobility maxSpeed 15.162537339132
scalar RSUExampleScenario.node[32].veinsmobility totalDistance 3414.0136447912
scalar RSUExampleScenario.node[32].veinsmobility totalCO2Emission 931.74289606698
scalar RSUExampleScenario.node[20].appl generatedWSMs 385
scalar RSUExampleScenario.node[20].appl receivedWSMs 254
scalar RSUExampleScenario.node[20].appl generatedBSMs 0
scalar RSUExampleScenario.node[20].appl receivedBSMs 0
scalar RSUExampleScenario.node[20].appl generatedWSAs 0
scalar RSUExampleScenario.node[20].appl receivedWSAs 0
scalar RSUExampleScenario.node[20].nic.phy80211p busyTime 0.00015426493506494
scalar RSUExampleScenario.node[20].nic.mac1609_4 ReceivedUnicastPackets 0
scalar RSUExampleScenario.node[20].nic.mac1609_4 ReceivedBroadcasts 254
scalar RSUExampleScenario.node[20].nic.mac1609_4 SentPackets 384
scalar RSUExampleScenario.node[20].nic.mac1609_4 SentAcknowledgements 0
scalar RSUExampleScenario.node[20].nic.mac1609_4 SNIRLostPackets 2
scalar RSUExampleScenario.node[20].nic.mac1609_4 RXTXLostPackets 0
scalar RSUExampleScenario.node[20].nic.mac1609_4 TotalLostPackets 2
scalar RSUExampleScenario.node[20].nic.mac1609_4 DroppedPacketsInMac 0
scalar RSUExampleScenario.node[20].nic.mac1609_4 TooLittleTime 0
scalar RSUExampleScenario.node[20].nic.mac1609_4 TimesIntoBackoff 385
scalar RSUExampleScenario.node[20].nic.mac1609_4 SlotsBackoff 549
scalar RSUExampleScenario.node[20].nic.mac1609_4 NumInternalContention 0
scalar RSUExampleScenario.node[20].nic.mac1609_4 totalBusyTime 0.148632
scalar RSUExampleScenario.node[20].veinsmobility startTime 5
scalar RSUExampleScenario.node[20].veinsmobility totalTime 384
scalar RSUExampleScenario.node[20].veinsmobility stopTime 390
scalar RSUExampleScenario.node[20].veinsmobility minSpeed 0
scalar RSUExampleScenario.node[20].veinsmobility maxSpeed 13.953309300718
scalar RSUExampleScenario.node[20].veinsmobility totalDistance 4196.5007490583
scalar RSUExampleScenario.node[20].veinsmobility totalCO2Emission 899.44051363105
scalar RSUExampleScenario.node[136].appl generatedWSMs 363
scalar RSUExampleScenario.node[136].appl receivedWSMs 335
scalar RSUExampleScenario.node[136].appl generatedBSMs 0
scalar RSUExampleScenario.node[136].appl receivedBSMs 0
scalar RSUExampleScenario.node[136].appl generatedWSAs 0
scalar RSUExampleScenario.node[136].appl receivedWSAs 0
scalar RSUExampleScenario.node[136].nic.phy80211p busyTime 0.00021410468319559
scalar RSUExampleScenario.node[136].nic.mac1609_4 ReceivedUnicastPackets 0
scalar RSUExampleScenario.node[136].nic.mac1609_4 ReceivedBroadcasts 335
scalar RSUExampleScenario.node[136].nic.mac1609_4 SentPackets 362
scalar RSUExampleScenario.node[136].nic.mac1609_4 SentAcknowledgements 0
scalar RSUExampleScenario.node[136].nic.mac1609_4 SNIRLostPackets 0
scalar RSUExampleScenario.node[136].nic.mac1609_4 RXTXLostPackets 0
scalar RSUExampleScenario.node[136].nic.mac1609_4 TotalLostPackets 0
scalar RSUExampleScenario.node[136].nic.mac1609_4 DroppedPacketsInMac 0
scalar RSUExampleScenario.node[136].nic.mac1609_4 TooLittleTime 0
scalar RSUExampleScenario.node[136].nic.mac1609_4 TimesIntoBackoff 363
scalar RSUExampleScenario.node[136].nic.mac1609_4 SlotsBackoff 549
scalar RSUExampleScenario.node[136].nic.mac1609_4 NumInternalContention 0
scalar RSUExampleScenario.node[136].nic.mac1609_4 totalBusyTime 0.162066
scalar RSUExampleScenario.node[136].veinsmobility startTime 28
scalar RSUExampleScenario.node[136].veinsmobility totalTime 362
scalar RSUExampleScenario.node[136].veinsmobility stopTime 391
scalar RSUExampleScenario.node[136].veinsmobility minSpeed 0
scalar RSUExampleScenario.node[136].veinsmobility maxSpeed 15.354576692676
scalar RSUExampleScenario.node[136].veinsmobility totalDistance 3148.2356563831
scalar RSUExampleScenario.node[136].veinsmobility totalCO2Emission 935.32902589379
scalar RSUExampleScenario.node[137].appl generatedWSMs 386
scalar RSUExampleScenario.node[137].appl receivedWSMs 300
scalar RSUExampleScenario.node[137].appl generatedBSMs 0
scalar RSUExampleScenario.node[137].appl receivedBSMs 0
scalar RSUExampleScenario.node[137].appl generatedWSAs 0
scalar RSUExampleScenario.node[137].appl receivedWSAs 0
scalar RSUExampleScenario.node[137].nic.phy80211p busyTime 0.00018964577656676
scalar RSUExampleScenario.node[137].nic.mac1609_4 ReceivedUnicastPackets 0
scalar RSUExampleScenario.node[137].nic.mac1609_4 ReceivedBroadcasts 300
scalar RSUExampleScenario.node[137].nic.mac1609_4 SentPackets 385
scalar RSUExampleScenario.node[137].nic.mac1609_4 SentAcknowledgements 0
scalar RSUExampleScenario.node[137].nic.mac1609_4 SNIRLostPackets 0
scalar RSUExampleScenario.node[137].nic.mac1609_4 RXTXLostPackets 0
scalar RSUExampleScenario.node[137].nic.mac1609_4 TotalLostPackets 0
scalar RSUExampleScenario.node[137].nic.mac1609_4 DroppedPacketsInMac 0
scalar RSUExampleScenario.node[137].nic.mac1609_4 TooLittleTime 0
scalar RSUExampleScenario.node[137].nic.mac1609_4 TimesIntoBackoff 385
scalar RSUExampleScenario.node[137].nic.mac1609_4 SlotsBackoff 589
scalar RSUExampleScenario.node[137].nic.mac1609_4 NumInternalContention 0
scalar RSUExampleScenario.node[137].nic.mac1609_4 totalBusyTime 0.159305
scalar RSUExampleScenario.node[137].veinsmobility startTime 28
scalar RSUExampleScenario.node[137].veinsmobility totalTime 366
scalar RSUExampleScenario.node[137].veinsmobility stopTime 395
scalar RSUExampleScenario.node[137].veinsmobility minSpeed 0
scalar RSUExampleScenario.node[137].veinsmobility maxSpeed 18.16125198272
scalar RSUExampleScenario.node[137].veinsmobility totalDistance 4827.8939671926
scalar RSUExampleScenario.node[137].veinsmobility totalCO2Emission 1015.218059923
scalar RSUExampleScenario.node[50].appl generatedWSMs 389
scalar RSUExampleScenario.node[50].appl receivedWSMs 84
scalar RSUExampleScenario.node[50].appl generatedBSMs 0
scalar RSUExampleScenario.node[50].appl receivedBSMs 0
scalar RSUExampleScenario.node[50].appl generatedWSAs 0
scalar RSUExampleScenario.node[50].appl receivedWSAs 0
scalar RSUExampleScenario.node[50].nic.phy80211p busyTime 5.0097686375321e-05
scalar RSUExampleScenario.node[50].nic.mac1609_4 ReceivedUnicastPackets 0
scalar RSUExampleScenario.node[50].nic.mac1609_4 ReceivedBroadcasts 84
scalar RSUExampleScenario.node[50].nic.mac1609_4 SentPackets 388
scalar RSUExampleScenario.node[50].nic.mac1609_4 SentAcknowledgements 0
scalar RSUExampleScenario.node[50].nic.mac1609_4 SNIRLostPackets 0
scalar RSUExampleScenario.node[50].nic.mac1609_4 RXTXLostPackets 0
scalar RSUExampleScenario.node[50].nic.mac1609_4 TotalLostPackets 0
scalar RSUExampleScenario.node[50].nic.mac1609_4 DroppedPacketsInMac 0
scalar RSUExampleScenario.node[50].nic.mac1609_4 TooLittleTime 0
scalar RSUExampleScenario.node[50].nic.mac1609_4 TimesIntoBackoff 389
scalar RSUExampleScenario.node[50].nic.mac1609_4 SlotsBackoff 573
scalar RSUExampleScenario.node[50].nic.mac1609_4 NumInternalContention 0
scalar RSUExampleScenario.node[50].nic.mac1609_4 totalBusyTime 0.109892
scalar RSUExampleScenario.node[50].veinsmobility startTime 11
scalar RSUExampleScenario.node[50].veinsmobility totalTime 388
scalar RSUExampleScenario.node[50].veinsmobility stopTime 400
scalar RSUExampleScenario.node[50].veinsmobility minSpeed 0
scalar RSUExampleScenario.node[50].veinsmobility maxSpeed 23.667843626393
scalar RSUExampleScenario.node[50].veinsmobility totalDistance 3316.9757670474
scalar RSUExampleScenario.node[50].veinsmobility totalCO2Emission 850.2297796701
scalar RSUExampleScenario.node[144].appl generatedWSMs 384
scalar RSUExampleScenario.node[144].appl receivedWSMs 55
scalar RSUExampleScenario.node[144].appl generatedBSMs 0
scalar RSUExampleScenario.node[144].appl receivedBSMs 0
scalar RSUExampleScenario.node[144].appl generatedWSAs 0
scalar RSUExampleScenario.node[144].appl receivedWSAs 0
scalar RSUExampleScenario.node[144].nic.phy80211p busyTime 3.3229166666667e-05
scalar RSUExampleScenario.node[144].nic.mac1609_4 ReceivedUnicastPackets 0
scalar RSUExampleScenario.node[144].nic.mac1609_4 ReceivedBroadcasts 55
scalar RSUExampleScenario.node[144].nic.mac1609_4 SentPackets 383
scalar RSUExampleScenario.node[144].nic.mac1609_4 SentAcknowledgements 0
scalar RSUExampleScenario.node[144].nic.mac1609_4 SNIRLostPackets 0
scalar RSUExampleScenario.node[144].nic.mac1609_4 RXTXLostPackets 0
scalar RSUExampleScenario.node[144].nic.mac1609_4 TotalLostPackets 0
scalar RSUExampleScenario.node[144].nic.mac1609_4 DroppedPacketsInMac 0
scalar RSUExampleScenario.node[144].nic.mac1609_4 TooLittleTime 0
scalar RSUExampleScenario.node[144].nic.mac1609_4 TimesIntoBackoff 383
scalar RSUExampleScenario.node[144].nic.mac1609_4 SlotsBackoff 564
scalar RSUExampleScenario.node[144].nic.mac1609_4 NumInternalContention 0
scalar RSUExampleScenario.node[144].nic.mac1609_4 totalBusyTime 0.101999
scalar RSUExampleScenario.node[144].veinsmobility startTime 30
scalar RSUExampleScenario.node[144].veinsmobility totalTime 383
scalar RSUExampleScenario.node[144].veinsmobility stopTime 414
scalar RSUExampleScenario.node[144].veinsmobility minSpeed 0
scalar RSUExampleScenario.node[144].veinsmobility maxSpeed 16.126619813029
scalar RSUExampleScenario.node[144].veinsmobility totalDistance 4268.8964327083
scalar RSUExampleScenario.node[144].veinsmobility totalCO2Emission 1117.1040910913
scalar RSUExampleScenario.node[82].appl generatedWSMs 400
scalar RSUExampleScenario.node[82].appl receivedWSMs 240
scalar RSUExampleScenario.node[82].appl generatedBSMs 0
scalar RSUExampleScenario.node[82].appl receivedBSMs 0
scalar RSUExampleScenario.node[82].appl generatedWSAs 0
scalar RSUExampleScenario.node[82].appl receivedWSAs 0
scalar RSUExampleScenario.node[82].nic.phy80211p busyTime 0.0001392
scalar RSUExampleScenario.node[82].nic.mac1609_4 ReceivedUnicastPackets 0
scalar RSUExampleScenario.node[82].nic.mac1609_4 ReceivedBroadcasts 240
scalar RSUExampleScenario.node[82].nic.mac1609_4 SentPackets 399
scalar RSUExampleScenario.node[82].nic.mac1609_4 SentAcknowledgements 0
scalar RSUExampleScenario.node[82].nic.mac1609_4 SNIRLostPackets 0
scalar RSUExampleScenario.node[82].nic.mac1609_4 RXTXLostPackets 0
scalar RSUExampleScenario.node[82].nic.mac1609_4 TotalLostPackets 0
scalar RSUExampleScenario.node[82].nic.mac1609_4 DroppedPacketsInMac 0
scalar RSUExampleScenario.node[82].nic.mac1609_4 TooLittleTime 0
scalar RSUExampleScenario.node[82].nic.mac1609_4 TimesIntoBackoff 399
scalar RSUExampleScenario.node[82].nic.mac1609_4 SlotsBackoff 612
scalar RSUExampleScenario.node[82].nic.mac1609_4 NumInternalContention 0
scalar RSUExampleScenario.node[82].nic.mac1609_4 totalBusyTime 0.148647
scalar RSUExampleScenario.node[82].veinsmobility startTime 17
scalar RSUExampleScenario.node[82].veinsmobility totalTime 399
scalar RSUExampleScenario.node[82].veinsmobility stopTime 417
scalar RSUExampleScenario.node[82].veinsmobility minSpeed 0
scalar RSUExampleScenario.node[82].veinsmobility maxSpeed 13.917877307967
scalar RSUExampleScenario.node[82].veinsmobility totalDistance 4017.644207786
scalar RSUExampleScenario.node[82].veinsmobility totalCO2Emission 996.69086082686
scalar RSUExampleScenario.node[138].appl generatedWSMs 402
scalar RSUExampleScenario.node[138].appl receivedWSMs 41
scalar RSUExampleScenario.node[138].appl generatedBSMs 0
scalar RSUExampleScenario.node[138].appl receivedBSMs 0
scalar RSUExampleScenario.node[138].appl generatedWSAs 0
scalar RSUExampleScenario.node[138].appl receivedWSAs 0
scalar RSUExampleScenario.node[138].nic.phy80211p busyTime 2.3661691542289e-05
scalar RSUExampleScenario.node[138].nic.mac1609_4 ReceivedUnicastPackets 0
scalar RSUExampleScenario.node[138].nic.mac1609_4 ReceivedBroadcasts 41
scalar RSUExampleScenario.node[138].nic.mac1609_4 SentPackets 401
scalar RSUExampleScenario.node[138].nic.mac1609_4 SentAcknowledgements 0
scalar RSUExampleScenario.node[138].nic.mac1609_4 SNIRLostPackets 0
scalar RSUExampleScenario.node[138].nic.mac1609_4 RXTXLostPackets 0
scalar RSUExampleScenario.node[138].nic.mac1609_4 TotalLostPackets 0
scalar RSUExampleScenario.node[138].nic.mac1609_4 DroppedPacketsInMac 0
scalar RSUExampleScenario.node[138].nic.mac1609_4 TooLittleTime 0
scalar RSUExampleScenario.node[138].nic.mac1609_4 TimesIntoBackoff 401
scalar RSUExampleScenario.node[138].nic.mac1609_4 SlotsBackoff 604
scalar RSUExampleScenario.node[138].nic.mac1609_4 NumInternalContention 0
scalar RSUExampleScenario.node[138].nic.mac1609_4 totalBusyTime 0.102945
scalar RSUExampleScenario.node[138].veinsmobility startTime 28
scalar RSUExampleScenario.node[138].veinsmobility totalTime 401
scalar RSUExampleScenario.node[138].veinsmobility stopTime 430
scalar RSUExampleScenario.node[138].veinsmobility minSpeed 0
scalar RSUExampleScenario.node[138].veinsmobility maxSpeed 14.045939121144
scalar RSUExampleScenario.node[138].veinsmobility totalDistance 3826.5886613717
scalar RSUExampleScenario.node[138].veinsmobility totalCO2Emission 949.13819564963
scalar RSUExampleScenario.node[81].appl generatedWSMs 417
scalar RSUExampleScenario.node[81].appl receivedWSMs 316
scalar RSUExampleScenario.node[81].appl generatedBSMs 0
scalar RSUExampleScenario.node[81].appl receivedBSMs 0
scalar RSUExampleScenario.node[81].appl generatedWSAs 0
scalar RSUExampleScenario.node[81].appl receivedWSAs 0
scalar RSUExampleScenario.node[81].nic.phy80211p busyTime 0.00017692086330935
scalar RSUExampleScenario.node[81].nic.mac1609_4 ReceivedUnicastPackets 0
scalar RSUExampleScenario.node[81].nic.mac1609_4 ReceivedBroadcasts 316
scalar RSUExampleScenario.node[81].nic.mac1609_4 SentPackets 416
scalar RSUExampleScenario.node[81].nic.mac1609_4 SentAcknowledgements 0
scalar RSUExampleScenario.node[81].nic.mac1609_4 SNIRLostPackets 2
scalar RSUExampleScenario.node[81].nic.mac1609_4 RXTXLostPackets 0
scalar RSUExampleScenario.node[81].nic.mac1609_4 TotalLostPackets 2
scalar RSUExampleScenario.node[81].nic.mac1609_4 DroppedPacketsInMac 0
scalar RSUExampleScenario.node[81].nic.mac1609_4 TooLittleTime 0
scalar RSUExampleScenario.node[81].nic.mac1609_4 TimesIntoBackoff 419
scalar RSUExampleScenario.node[81].nic.mac1609_4 SlotsBackoff 605
scalar RSUExampleScenario.node[81].nic.mac1609_4 NumInternalContention 0
scalar RSUExampleScenario.node[81].nic.mac1609_4 totalBusyTime 0.170472
scalar RSUExampleScenario.node[81].veinsmobility startTime 17
scalar RSUExampleScenario.node[81].veinsmobility totalTime 416
scalar RSUExampleScenario.node[81].veinsmobility stopTime 434
scalar RSUExampleScenario.node[81].veinsmobility minSpeed 0
scalar RSUExampleScenario.node[81].veinsmobility maxSpeed 14.481411751894
scalar RSUExampleScenario.node[81].veinsmobility totalDistance 2801.862987686
scalar RSUExampleScenario.node[81].veinsmobility totalCO2Emission 935.01457480914
scalar RSUExampleScenario.node[4].appl generatedWSMs 543
scalar RSUExampleScenario.node[4].appl receivedWSMs 898
scalar RSUExampleScenario.node[4].appl generatedBSMs 0
scalar RSUExampleScenario.node[4].appl receivedBSMs 0
scalar RSUExampleScenario.node[4].appl generatedWSAs 0
scalar RSUExampleScenario.node[4].appl receivedWSAs 0
scalar RSUExampleScenario.node[4].nic.phy80211p busyTime 0.00047346938775511
scalar RSUExampleScenario.node[4].nic.mac1609_4 ReceivedUnicastPackets 0
scalar RSUExampleScenario.node[4].nic.mac1609_4 ReceivedBroadcasts 898
scalar RSUExampleScenario.node[4].nic.mac1609_4 SentPackets 542
scalar RSUExampleScenario.node[4].nic.mac1609_4 SentAcknowledgements 0
scalar RSUExampleScenario.node[4].nic.mac1609_4 SNIRLostPackets 2
scalar RSUExampleScenario.node[4].nic.mac1609_4 RXTXLostPackets 0
scalar RSUExampleScenario.node[4].nic.mac1609_4 TotalLostPackets 2
scalar RSUExampleScenario.node[4].nic.mac1609_4 DroppedPacketsInMac 0
scalar RSUExampleScenario.node[4].nic.mac1609_4 TooLittleTime 0
scalar RSUExampleScenario.node[4].nic.mac1609_4 TimesIntoBackoff 545
scalar RSUExampleScenario.node[4].nic.mac1609_4 SlotsBackoff 849
scalar RSUExampleScenario.node[4].nic.mac1609_4 NumInternalContention 0
scalar RSUExampleScenario.node[4].nic.mac1609_4 totalBusyTime 0.334854
scalar RSUExampleScenario.node[4].veinsmobility startTime 1
scalar RSUExampleScenario.node[4].veinsmobility totalTime 440
scalar RSUExampleScenario.node[4].veinsmobility stopTime 442
scalar RSUExampleScenario.node[4].veinsmobility minSpeed 0
scalar RSUExampleScenario.node[4].veinsmobility maxSpeed 15.606238163895
scalar RSUExampleScenario.node[4].veinsmobility totalDistance 4121.7410031549
scalar RSUExampleScenario.node[4].veinsmobility totalCO2Emission 1096.5183990964
scalar RSUExampleScenario.node[17].appl generatedWSMs 443
scalar RSUExampleScenario.node[17].appl receivedWSMs 33
scalar RSUExampleScenario.node[17].appl generatedBSMs 0
scalar RSUExampleScenario.node[17].appl receivedBSMs 0
scalar RSUExampleScenario.node[17].appl generatedWSAs 0
scalar RSUExampleScenario.node[17].appl receivedWSAs 0
scalar RSUExampleScenario.node[17].nic.phy80211p busyTime 1.7282167042889e-05
scalar RSUExampleScenario.node[17].nic.mac1609_4 ReceivedUnicastPackets 0
scalar RSUExampleScenario.node[17].nic.mac1609_4 ReceivedBroadcasts 33
scalar RSUExampleScenario.node[17].nic.mac1609_4 SentPackets 442
scalar RSUExampleScenario.node[17].nic.mac1609_4 SentAcknowledgements 0
scalar RSUExampleScenario.node[17].nic.mac1609_4 SNIRLostPackets 0
scalar RSUExampleScenario.node[17].nic.mac1609_4 RXTXLostPackets 0
scalar RSUExampleScenario.node[17].nic.mac1609_4 TotalLostPackets 0
scalar RSUExampleScenario.node[17].nic.mac1609_4 DroppedPacketsInMac 0
scalar RSUExampleScenario.node[17].nic.mac1609_4 TooLittleTime 0
scalar RSUExampleScenario.node[17].nic.mac1609_4 TimesIntoBackoff 442
scalar RSUExampleScenario.node[17].nic.mac1609_4 SlotsBackoff 676
scalar RSUExampleScenario.node[17].nic.mac1609_4 NumInternalContention 0
scalar RSUExampleScenario.node[17].nic.mac1609_4 totalBusyTime 0.110642
scalar RSUExampleScenario.node[17].veinsmobility startTime 4
scalar RSUExampleScenario.node[17].veinsmobility totalTime 442
scalar RSUExampleScenario.node[17].veinsmobility stopTime 447
scalar RSUExampleScenario.node[17].veinsmobility minSpeed 0
scalar RSUExampleScenario.node[17].veinsmobility maxSpeed 16.931759614547
scalar RSUExampleScenario.node[17].veinsmobility totalDistance 5860.3516124653
scalar RSUExampleScenario.node[17].veinsmobility totalCO2Emission 1333.5443321423
scalar RSUExampleScenario.node[38].appl generatedWSMs 458
scalar RSUExampleScenario.node[38].appl receivedWSMs 254
scalar RSUExampleScenario.node[38].appl generatedBSMs 0
scalar RSUExampleScenario.node[38].appl receivedBSMs 0
scalar RSUExampleScenario.node[38].appl generatedWSAs 0
scalar RSUExampleScenario.node[38].appl receivedWSAs 0
scalar RSUExampleScenario.node[38].nic.phy80211p busyTime 0.00013392727272727
scalar RSUExampleScenario.node[38].nic.mac1609_4 ReceivedUnicastPackets 0
scalar RSUExampleScenario.node[38].nic.mac1609_4 ReceivedBroadcasts 254
scalar RSUExampleScenario.node[38].nic.mac1609_4 SentPackets 457
scalar RSUExampleScenario.node[38].nic.mac1609_4 SentAcknowledgements 0
scalar RSUExampleScenario.node[38].nic.mac1609_4 SNIRLostPackets 0
scalar RSUExampleScenario.node[38].nic.mac1609_4 RXTXLostPackets 0
scalar RSUExampleScenario.node[38].nic.mac1609_4 TotalLostPackets 0
scalar RSUExampleScenario.node[38].nic.mac1609_4 DroppedPacketsInMac 0
scalar RSUExampleScenario.node[38].nic.mac1609_4 TooLittleTime 0
scalar RSUExampleScenario.node[38].nic.mac1609_4 TimesIntoBackoff 458
scalar RSUExampleScenario.node[38].nic.mac1609_4 SlotsBackoff 677
scalar RSUExampleScenario.node[38].nic.mac1609_4 NumInternalContention 0
scalar RSUExampleScenario.node[38].nic.mac1609_4 totalBusyTime 0.165409
scalar RSUExampleScenario.node[38].veinsmobility startTime 8
scalar RSUExampleScenario.node[38].veinsmobility totalTime 439
scalar RSUExampleScenario.node[38].veinsmobility stopTime 448
scalar RSUExampleScenario.node[38].veinsmobility minSpeed 1.4834439461352
scalar RSUExampleScenario.node[38].veinsmobility maxSpeed 12.075593788854
scalar RSUExampleScenario.node[38].veinsmobility totalDistance 4754.5459278579
scalar RSUExampleScenario.node[38].veinsmobility totalCO2Emission 991.47617552096
scalar RSUExampleScenario.node[43].appl generatedWSMs 447
scalar RSUExampleScenario.node[43].appl receivedWSMs 119
scalar RSUExampleScenario.node[43].appl generatedBSMs 0
scalar RSUExampleScenario.node[43].appl receivedBSMs 0
scalar RSUExampleScenario.node[43].appl generatedWSAs 0
scalar RSUExampleScenario.node[43].appl receivedWSAs 0
scalar RSUExampleScenario.node[43].nic.phy80211p busyTime 6.2040449438202e-05
scalar RSUExampleScenario.node[43].nic.mac1609_4 ReceivedUnicastPackets 0
scalar RSUExampleScenario.node[43].nic.mac1609_4 ReceivedBroadcasts 119
scalar RSUExampleScenario.node[43].nic.mac1609_4 SentPackets 446
scalar RSUExampleScenario.node[43].nic.mac1609_4 SentAcknowledgements 0
scalar RSUExampleScenario.node[43].nic.mac1609_4 SNIRLostPackets 0
scalar RSUExampleScenario.node[43].nic.mac1609_4 RXTXLostPackets 0
scalar RSUExampleScenario.node[43].nic.mac1609_4 TotalLostPackets 0
scalar RSUExampleScenario.node[43].nic.mac1609_4 DroppedPacketsInMac 0
scalar RSUExampleScenario.node[43].nic.mac1609_4 TooLittleTime 0
scalar RSUExampleScenario.node[43].nic.mac1609_4 TimesIntoBackoff 446
scalar RSUExampleScenario.node[43].nic.mac1609_4 SlotsBackoff 666
scalar RSUExampleScenario.node[43].nic.mac1609_4 NumInternalContention 0
scalar RSUExampleScenario.node[43].nic.mac1609_4 totalBusyTime 0.131526
scalar RSUExampleScenario.node[43].veinsmobility startTime 9
scalar RSUExampleScenario.node[43].veinsmobility totalTime 444
scalar RSUExampleScenario.node[43].veinsmobility stopTime 454
scalar RSUExampleScenario.node[43].veinsmobility minSpeed 0
scalar RSUExampleScenario.node[43].veinsmobility maxSpeed 14.187618964405
scalar RSUExampleScenario.node[43].veinsmobility totalDistance 3819.182524714
scalar RSUExampleScenario.node[43].veinsmobility totalCO2Emission 1044.4374516672
scalar RSUExampleScenario.node[96].appl generatedWSMs 445
scalar RSUExampleScenario.node[96].appl receivedWSMs 467
scalar RSUExampleScenario.node[96].appl generatedBSMs 0
scalar RSUExampleScenario.node[96].appl receivedBSMs 0
scalar RSUExampleScenario.node[96].appl generatedWSAs 0
scalar RSUExampleScenario.node[96].appl receivedWSAs 0
scalar RSUExampleScenario.node[96].nic.phy80211p busyTime 0.00024906666666667
scalar RSUExampleScenario.node[96].nic.mac1609_4 ReceivedUnicastPackets 0
scalar RSUExampleScenario.node[96].nic.mac1609_4 ReceivedBroadcasts 467
scalar RSUExampleScenario.node[96].nic.mac1609_4 SentPackets 444
scalar RSUExampleScenario.node[96].nic.mac1609_4 SentAcknowledgements 0
scalar RSUExampleScenario.node[96].nic.mac1609_4 SNIRLostPackets 0
scalar RSUExampleScenario.node[96].nic.mac1609_4 RXTXLostPackets 0
scalar RSUExampleScenario.node[96].nic.mac1609_4 TotalLostPackets 0
scalar RSUExampleScenario.node[96].nic.mac1609_4 DroppedPacketsInMac 0
scalar RSUExampleScenario.node[96].nic.mac1609_4 TooLittleTime 0
scalar RSUExampleScenario.node[96].nic.mac1609_4 TimesIntoBackoff 445
scalar RSUExampleScenario.node[96].nic.mac1609_4 SlotsBackoff 657
scalar RSUExampleScenario.node[96].nic.mac1609_4 NumInternalContention 0
scalar RSUExampleScenario.node[96].nic.mac1609_4 totalBusyTime 0.211796
scalar RSUExampleScenario.node[96].veinsmobility startTime 20
scalar RSUExampleScenario.node[96].veinsmobility totalTime 434
scalar RSUExampleScenario.node[96].veinsmobility stopTime 455
scalar RSUExampleScenario.node[96].veinsmobility minSpeed 0
scalar RSUExampleScenario.node[96].veinsmobility maxSpeed 13.392317640635
scalar RSUExampleScenario.node[96].veinsmobility totalDistance 2958.0230093513
scalar RSUExampleScenario.node[96].veinsmobility totalCO2Emission 936.90182123865
scalar RSUExampleScenario.node[105].appl generatedWSMs 439
scalar RSUExampleScenario.node[105].appl receivedWSMs 153
scalar RSUExampleScenario.node[105].appl generatedBSMs 0
scalar RSUExampleScenario.node[105].appl receivedBSMs 0
scalar RSUExampleScenario.node[105].appl generatedWSAs 0
scalar RSUExampleScenario.node[105].appl receivedWSAs 0
scalar RSUExampleScenario.node[105].nic.phy80211p busyTime 8.0856492027335e-05
scalar RSUExampleScenario.node[105].nic.mac1609_4 ReceivedUnicastPackets 0
scalar RSUExampleScenario.node[105].nic.mac1609_4 ReceivedBroadcasts 153
scalar RSUExampleScenario.node[105].nic.mac1609_4 SentPackets 438
scalar RSUExampleScenario.node[105].nic.mac1609_4 SentAcknowledgements 0
scalar RSUExampleScenario.node[105].nic.mac1609_4 SNIRLostPackets 0
scalar RSUExampleScenario.node[105].nic.mac1609_4 RXTXLostPackets 0
scalar RSUExampleScenario.node[105].nic.mac1609_4 TotalLostPackets 0
scalar RSUExampleScenario.node[105].nic.mac1609_4 DroppedPacketsInMac 0
scalar RSUExampleScenario.node[105].nic.mac1609_4 TooLittleTime 0
scalar RSUExampleScenario.node[105].nic.mac1609_4 TimesIntoBackoff 438
scalar RSUExampleScenario.node[105].nic.mac1609_4 SlotsBackoff 695
scalar RSUExampleScenario.node[105].nic.mac1609_4 NumInternalContention 0
scalar RSUExampleScenario.node[105].nic.mac1609_4 totalBusyTime 0.13755
scalar RSUExampleScenario.node[105].veinsmobility startTime 21
scalar RSUExampleScenario.node[105].veinsmobility totalTime 438
scalar RSUExampleScenario.node[105].veinsmobility stopTime 460
scalar RSUExampleScenario.node[105].veinsmobility minSpeed 0
scalar RSUExampleScenario.node[105].veinsmobility maxSpeed 19.522530360433
scalar RSUExampleScenario.node[105].veinsmobility totalDistance 3962.4732929477
scalar RSUExampleScenario.node[105].veinsmobility totalCO2Emission 1010.6876344616
scalar RSUExampleScenario.node[58].appl generatedWSMs 511
scalar RSUExampleScenario.node[58].appl receivedWSMs 745
scalar RSUExampleScenario.node[58].appl generatedBSMs 0
scalar RSUExampleScenario.node[58].appl receivedBSMs 0
scalar RSUExampleScenario.node[58].appl generatedWSAs 0
scalar RSUExampleScenario.node[58].appl receivedWSAs 0
scalar RSUExampleScenario.node[58].nic.phy80211p busyTime 0.00038580357142857
scalar RSUExampleScenario.node[58].nic.mac1609_4 ReceivedUnicastPackets 0
scalar RSUExampleScenario.node[58].nic.mac1609_4 ReceivedBroadcasts 745
scalar RSUExampleScenario.node[58].nic.mac1609_4 SentPackets 510
scalar RSUExampleScenario.node[58].nic.mac1609_4 SentAcknowledgements 0
scalar RSUExampleScenario.node[58].nic.mac1609_4 SNIRLostPackets 0
scalar RSUExampleScenario.node[58].nic.mac1609_4 RXTXLostPackets 0
scalar RSUExampleScenario.node[58].nic.mac1609_4 TotalLostPackets 0
scalar RSUExampleScenario.node[58].nic.mac1609_4 DroppedPacketsInMac 0
scalar RSUExampleScenario.node[58].nic.mac1609_4 TooLittleTime 0
scalar RSUExampleScenario.node[58].nic.mac1609_4 TimesIntoBackoff 512
scalar RSUExampleScenario.node[58].nic.mac1609_4 SlotsBackoff 889
scalar RSUExampleScenario.node[58].nic.mac1609_4 NumInternalContention 0
scalar RSUExampleScenario.node[58].nic.mac1609_4 totalBusyTime 0.29167
scalar RSUExampleScenario.node[58].veinsmobility startTime 13
scalar RSUExampleScenario.node[58].veinsmobility totalTime 447
scalar RSUExampleScenario.node[58].veinsmobility stopTime 461
scalar RSUExampleScenario.node[58].veinsmobility minSpeed 0
scalar RSUExampleScenario.node[58].veinsmobility maxSpeed 21.769915783174
scalar RSUExampleScenario.node[58].veinsmobility totalDistance 5135.6470032426
scalar RSUExampleScenario.node[58].veinsmobility totalCO2Emission 1188.3382107867
scalar RSUExampleScenario.node[37].appl generatedWSMs 460
scalar RSUExampleScenario.node[37].appl receivedWSMs 506
scalar RSUExampleScenario.node[37].appl generatedBSMs 0
scalar RSUExampleScenario.node[37].appl receivedBSMs 0
scalar RSUExampleScenario.node[37].appl generatedWSAs 0
scalar RSUExampleScenario.node[37].appl receivedWSAs 0
scalar RSUExampleScenario.node[37].nic.phy80211p busyTime 0.00025902417582417
scalar RSUExampleScenario.node[37].nic.mac1609_4 ReceivedUnicastPackets 0
scalar RSUExampleScenario.node[37].nic.mac1609_4 ReceivedBroadcasts 506
scalar RSUExampleScenario.node[37].nic.mac1609_4 SentPackets 459
scalar RSUExampleScenario.node[37].nic.mac1609_4 SentAcknowledgements 0
scalar RSUExampleScenario.node[37].nic.mac1609_4 SNIRLostPackets 2
scalar RSUExampleScenario.node[37].nic.mac1609_4 RXTXLostPackets 0
scalar RSUExampleScenario.node[37].nic.mac1609_4 TotalLostPackets 2
scalar RSUExampleScenario.node[37].nic.mac1609_4 DroppedPacketsInMac 0
scalar RSUExampleScenario.node[37].nic.mac1609_4 TooLittleTime 0
scalar RSUExampleScenario.node[37].nic.mac1609_4 TimesIntoBackoff 459
scalar RSUExampleScenario.node[37].nic.mac1609_4 SlotsBackoff 683
scalar RSUExampleScenario.node[37].nic.mac1609_4 NumInternalContention 0
scalar RSUExampleScenario.node[37].nic.mac1609_4 totalBusyTime 0.224571
scalar RSUExampleScenario.node[37].veinsmobility startTime 8
scalar RSUExampleScenario.node[37].veinsmobility totalTime 454
scalar RSUExampleScenario.node[37].veinsmobility stopTime 463
scalar RSUExampleScenario.node[37].veinsmobility minSpeed 0
scalar RSUExampleScenario.node[37].veinsmobility maxSpeed 21.912089391421
scalar RSUExampleScenario.node[37].veinsmobility totalDistance 4538.8627494233
scalar RSUExampleScenario.node[37].veinsmobility totalCO2Emission 1106.0278006823
scalar RSUExampleScenario.node[124].appl generatedWSMs 447
scalar RSUExampleScenario.node[124].appl receivedWSMs 238
scalar RSUExampleScenario.node[124].appl generatedBSMs 0
scalar RSUExampleScenario.node[124].appl receivedBSMs 0
scalar RSUExampleScenario.node[124].appl generatedWSAs 0
scalar RSUExampleScenario.node[124].appl receivedWSAs 0
scalar RSUExampleScenario.node[124].nic.phy80211p busyTime 0.00012520634920635
scalar RSUExampleScenario.node[124].nic.mac1609_4 ReceivedUnicastPackets 0
scalar RSUExampleScenario.node[124].nic.mac1609_4 ReceivedBroadcasts 238
scalar RSUExampleScenario.node[124].nic.mac1609_4 SentPackets 446
scalar RSUExampleScenario.node[124].nic.mac1609_4 SentAcknowledgements 0
scalar RSUExampleScenario.node[124].nic.mac1609_4 SNIRLostPackets 0
scalar RSUExampleScenario.node[124].nic.mac1609_4 RXTXLostPackets 0
scalar RSUExampleScenario.node[124].nic.mac1609_4 TotalLostPackets 0
scalar RSUExampleScenario.node[124].nic.mac1609_4 DroppedPacketsInMac 0
scalar RSUExampleScenario.node[124].nic.mac1609_4 TooLittleTime 0
scalar RSUExampleScenario.node[124].nic.mac1609_4 TimesIntoBackoff 447
scalar RSUExampleScenario.node[124].nic.mac1609_4 SlotsBackoff 639
scalar RSUExampleScenario.node[124].nic.mac1609_4 NumInternalContention 0
scalar RSUExampleScenario.node[124].nic.mac1609_4 totalBusyTime 0.159134
scalar RSUExampleScenario.node[124].veinsmobility startTime 25
scalar RSUExampleScenario.node[124].veinsmobility totalTime 440
scalar RSUExampleScenario.node[124].veinsmobility stopTime 466
scalar RSUExampleScenario.node[124].veinsmobility minSpeed 0
scalar RSUExampleScenario.node[124].veinsmobility maxSpeed 15.85997885396
scalar RSUExampleScenario.node[124].veinsmobility totalDistance 2928.6889603622
scalar RSUExampleScenario.node[124].veinsmobility totalCO2Emission 988.24636117057
scalar RSUExampleScenario.node[148].appl generatedWSMs 445
scalar RSUExampleScenario.node[148].appl receivedWSMs 466
scalar RSUExampleScenario.node[148].appl generatedBSMs 0
scalar RSUExampleScenario.node[148].appl receivedBSMs 0
scalar RSUExampleScenario.node[148].appl generatedWSAs 0
scalar RSUExampleScenario.node[148].appl receivedWSAs 0
scalar RSUExampleScenario.node[148].nic.phy80211p busyTime 0.00024404514672686
scalar RSUExampleScenario.node[148].nic.mac1609_4 ReceivedUnicastPackets 0
scalar RSUExampleScenario.node[148].nic.mac1609_4 ReceivedBroadcasts 466
scalar RSUExampleScenario.node[148].nic.mac1609_4 SentPackets 444
scalar RSUExampleScenario.node[148].nic.mac1609_4 SentAcknowledgements 0
scalar RSUExampleScenario.node[148].nic.mac1609_4 SNIRLostPackets 0
scalar RSUExampleScenario.node[148].nic.mac1609_4 RXTXLostPackets 0
scalar RSUExampleScenario.node[148].nic.mac1609_4 TotalLostPackets 0
scalar RSUExampleScenario.node[148].nic.mac1609_4 DroppedPacketsInMac 0
scalar RSUExampleScenario.node[148].nic.mac1609_4 TooLittleTime 0
scalar RSUExampleScenario.node[148].nic.mac1609_4 TimesIntoBackoff 446
scalar RSUExampleScenario.node[148].nic.mac1609_4 SlotsBackoff 695
scalar RSUExampleScenario.node[148].nic.mac1609_4 NumInternalContention 0
scalar RSUExampleScenario.node[148].nic.mac1609_4 totalBusyTime 0.211564
scalar RSUExampleScenario.node[148].veinsmobility startTime 30
scalar RSUExampleScenario.node[148].veinsmobility totalTime 442
scalar RSUExampleScenario.node[148].veinsmobility stopTime 473
scalar RSUExampleScenario.node[148].veinsmobility minSpeed 0
scalar RSUExampleScenario.node[148].veinsmobility maxSpeed 13.618578420817
scalar RSUExampleScenario.node[148].veinsmobility totalDistance 4484.4287939569
scalar RSUExampleScenario.node[148].veinsmobility totalCO2Emission 1129.1412770353
scalar RSUExampleScenario.node[103].appl generatedWSMs 454
scalar RSUExampleScenario.node[103].appl receivedWSMs 542
scalar RSUExampleScenario.node[103].appl generatedBSMs 0
scalar RSUExampleScenario.node[103].appl receivedBSMs 0
scalar RSUExampleScenario.node[103].appl generatedWSAs 0
scalar RSUExampleScenario.node[103].appl receivedWSAs 0
scalar RSUExampleScenario.node[103].nic.phy80211p busyTime 0.00027901321585903
scalar RSUExampleScenario.node[103].nic.mac1609_4 ReceivedUnicastPackets 0
scalar RSUExampleScenario.node[103].nic.mac1609_4 ReceivedBroadcasts 542
scalar RSUExampleScenario.node[103].nic.mac1609_4 SentPackets 453
scalar RSUExampleScenario.node[103].nic.mac1609_4 SentAcknowledgements 0
scalar RSUExampleScenario.node[103].nic.mac1609_4 SNIRLostPackets 4
scalar RSUExampleScenario.node[103].nic.mac1609_4 RXTXLostPackets 0
scalar RSUExampleScenario.node[103].nic.mac1609_4 TotalLostPackets 4
scalar RSUExampleScenario.node[103].nic.mac1609_4 DroppedPacketsInMac 0
scalar RSUExampleScenario.node[103].nic.mac1609_4 TooLittleTime 0
scalar RSUExampleScenario.node[103].nic.mac1609_4 TimesIntoBackoff 454
scalar RSUExampleScenario.node[103].nic.mac1609_4 SlotsBackoff 689
scalar RSUExampleScenario.node[103].nic.mac1609_4 NumInternalContention 0
scalar RSUExampleScenario.node[103].nic.mac1609_4 totalBusyTime 0.231761536043
scalar RSUExampleScenario.node[103].veinsmobility startTime 21
scalar RSUExampleScenario.node[103].veinsmobility totalTime 453
scalar RSUExampleScenario.node[103].veinsmobility stopTime 475
scalar RSUExampleScenario.node[103].veinsmobility minSpeed 0
scalar RSUExampleScenario.node[103].veinsmobility maxSpeed 14.690728052108
scalar RSUExampleScenario.node[103].veinsmobility totalDistance 3229.0895041714
scalar RSUExampleScenario.node[103].veinsmobility totalCO2Emission 1089.8526017167
scalar RSUExampleScenario.node[56].appl generatedWSMs 464
scalar RSUExampleScenario.node[56].appl receivedWSMs 308
scalar RSUExampleScenario.node[56].appl generatedBSMs 0
scalar RSUExampleScenario.node[56].appl receivedBSMs 0
scalar RSUExampleScenario.node[56].appl generatedWSAs 0
scalar RSUExampleScenario.node[56].appl receivedWSAs 0
scalar RSUExampleScenario.node[56].nic.phy80211p busyTime 0.000154
scalar RSUExampleScenario.node[56].nic.mac1609_4 ReceivedUnicastPackets 0
scalar RSUExampleScenario.node[56].nic.mac1609_4 ReceivedBroadcasts 308
scalar RSUExampleScenario.node[56].nic.mac1609_4 SentPackets 463
scalar RSUExampleScenario.node[56].nic.mac1609_4 SentAcknowledgements 0
scalar RSUExampleScenario.node[56].nic.mac1609_4 SNIRLostPackets 0
scalar RSUExampleScenario.node[56].nic.mac1609_4 RXTXLostPackets 0
scalar RSUExampleScenario.node[56].nic.mac1609_4 TotalLostPackets 0
scalar RSUExampleScenario.node[56].nic.mac1609_4 DroppedPacketsInMac 0
scalar RSUExampleScenario.node[56].nic.mac1609_4 TooLittleTime 0
scalar RSUExampleScenario.node[56].nic.mac1609_4 TimesIntoBackoff 463
scalar RSUExampleScenario.node[56].nic.mac1609_4 SlotsBackoff 690
scalar RSUExampleScenario.node[56].nic.mac1609_4 NumInternalContention 0
[...]
scalar RSUExampleScenario.node[114].nic.phy80211p busyTime 0.0001424769703173
scalar RSUExampleScenario.node[114].nic.mac1609_4 ReceivedUnicastPackets 0
scalar RSUExampleScenario.node[114].nic.mac1609_4 ReceivedBroadcasts 600
scalar RSUExampleScenario.node[114].nic.mac1609_4 SentPackets 976
scalar RSUExampleScenario.node[114].nic.mac1609_4 SentAcknowledgements 0
scalar RSUExampleScenario.node[114].nic.mac1609_4 SNIRLostPackets 0
scalar RSUExampleScenario.node[114].nic.mac1609_4 RXTXLostPackets 0
scalar RSUExampleScenario.node[114].nic.mac1609_4 TotalLostPackets 0
scalar RSUExampleScenario.node[114].nic.mac1609_4 DroppedPacketsInMac 0
scalar RSUExampleScenario.node[114].nic.mac1609_4 TooLittleTime 0
scalar RSUExampleScenario.node[114].nic.mac1609_4 TimesIntoBackoff 977
scalar RSUExampleScenario.node[114].nic.mac1609_4 SlotsBackoff 1456
scalar RSUExampleScenario.node[114].nic.mac1609_4 NumInternalContention 0
scalar RSUExampleScenario.node[114].nic.mac1609_4 totalBusyTime 0.366608
scalar RSUExampleScenario.node[114].veinsmobility startTime 23
scalar RSUExampleScenario.node[114].veinsmobility totalTime 977
scalar RSUExampleScenario.node[114].veinsmobility stopTime 1000
scalar RSUExampleScenario.node[114].veinsmobility minSpeed 0
scalar RSUExampleScenario.node[114].veinsmobility maxSpeed 35.356070008752
scalar RSUExampleScenario.node[114].veinsmobility totalDistance 18047.914002251
scalar RSUExampleScenario.node[114].veinsmobility totalCO2Emission 3746.8331637243
scalar RSUExampleScenario.node[57].appl generatedWSMs 988
scalar RSUExampleScenario.node[57].appl receivedWSMs 296
scalar RSUExampleScenario.node[57].appl generatedBSMs 0
scalar RSUExampleScenario.node[57].appl receivedBSMs 0
scalar RSUExampleScenario.node[57].appl generatedWSAs 0
scalar RSUExampleScenario.node[57].appl receivedWSAs 0
scalar RSUExampleScenario.node[57].nic.phy80211p busyTime 6.9506072874494e-05
scalar RSUExampleScenario.node[57].nic.mac1609_4 ReceivedUnicastPackets 0
scalar RSUExampleScenario.node[57].nic.mac1609_4 ReceivedBroadcasts 296
scalar RSUExampleScenario.node[57].nic.mac1609_4 SentPackets 987
scalar RSUExampleScenario.node[57].nic.mac1609_4 SentAcknowledgements 0
scalar RSUExampleScenario.node[57].nic.mac1609_4 SNIRLostPackets 0
scalar RSUExampleScenario.node[57].nic.mac1609_4 RXTXLostPackets 0
scalar RSUExampleScenario.node[57].nic.mac1609_4 TotalLostPackets 0
scalar RSUExampleScenario.node[57].nic.mac1609_4 DroppedPacketsInMac 0
scalar RSUExampleScenario.node[57].nic.mac1609_4 TooLittleTime 0
scalar RSUExampleScenario.node[57].nic.mac1609_4 TimesIntoBackoff 987
scalar RSUExampleScenario.node[57].nic.mac1609_4 SlotsBackoff 1471
scalar RSUExampleScenario.node[57].nic.mac1609_4 NumInternalContention 0
scalar RSUExampleScenario.node[57].nic.mac1609_4 totalBusyTime 0.298643
scalar RSUExampleScenario.node[57].veinsmobility startTime 12
scalar RSUExampleScenario.node[57].veinsmobility totalTime 988
scalar RSUExampleScenario.node[57].veinsmobility stopTime 1000
scalar RSUExampleScenario.node[57].veinsmobility minSpeed 0
scalar RSUExampleScenario.node[57].veinsmobility maxSpeed 20.140921323269
scalar RSUExampleScenario.node[57].veinsmobility totalDistance 9034.5341499098
scalar RSUExampleScenario.node[57].veinsmobility totalCO2Emission 2326.2871583165
scalar RSUExampleScenario.node[88].appl generatedWSMs 983
scalar RSUExampleScenario.node[88].appl receivedWSMs 424
scalar RSUExampleScenario.node[88].appl generatedBSMs 0
scalar RSUExampleScenario.node[88].appl receivedBSMs 0
scalar RSUExampleScenario.node[88].appl generatedWSAs 0
scalar RSUExampleScenario.node[88].appl receivedWSAs 0
scalar RSUExampleScenario.node[88].nic.phy80211p busyTime 0.00010017107942973
scalar RSUExampleScenario.node[88].nic.mac1609_4 ReceivedUnicastPackets 0
scalar RSUExampleScenario.node[88].nic.mac1609_4 ReceivedBroadcasts 424
scalar RSUExampleScenario.node[88].nic.mac1609_4 SentPackets 982
scalar RSUExampleScenario.node[88].nic.mac1609_4 SentAcknowledgements 0
scalar RSUExampleScenario.node[88].nic.mac1609_4 SNIRLostPackets 0
scalar RSUExampleScenario.node[88].nic.mac1609_4 RXTXLostPackets 0
scalar RSUExampleScenario.node[88].nic.mac1609_4 TotalLostPackets 0
scalar RSUExampleScenario.node[88].nic.mac1609_4 DroppedPacketsInMac 0
scalar RSUExampleScenario.node[88].nic.mac1609_4 TooLittleTime 0
scalar RSUExampleScenario.node[88].nic.mac1609_4 TimesIntoBackoff 982
scalar RSUExampleScenario.node[88].nic.mac1609_4 SlotsBackoff 1473
scalar RSUExampleScenario.node[88].nic.mac1609_4 NumInternalContention 0
scalar RSUExampleScenario.node[88].nic.mac1609_4 totalBusyTime 0.327174
scalar RSUExampleScenario.node[88].veinsmobility startTime 18
scalar RSUExampleScenario.node[88].veinsmobility totalTime 982
scalar RSUExampleScenario.node[88].veinsmobility stopTime 1000
scalar RSUExampleScenario.node[88].veinsmobility minSpeed 0
scalar RSUExampleScenario.node[88].veinsmobility maxSpeed 55.542960929806
scalar RSUExampleScenario.node[88].veinsmobility totalDistance 18125.487444693
scalar RSUExampleScenario.node[88].veinsmobility totalCO2Emission 4384.1584231741
scalar RSUExampleScenario.node[133].appl generatedWSMs 975
scalar RSUExampleScenario.node[133].appl receivedWSMs 242
scalar RSUExampleScenario.node[133].appl generatedBSMs 0
scalar RSUExampleScenario.node[133].appl receivedBSMs 0
scalar RSUExampleScenario.node[133].appl generatedWSAs 0
scalar RSUExampleScenario.node[133].appl receivedWSAs 0
scalar RSUExampleScenario.node[133].nic.phy80211p busyTime 5.7701952723536e-05
scalar RSUExampleScenario.node[133].nic.mac1609_4 ReceivedUnicastPackets 0
scalar RSUExampleScenario.node[133].nic.mac1609_4 ReceivedBroadcasts 242
scalar RSUExampleScenario.node[133].nic.mac1609_4 SentPackets 974
scalar RSUExampleScenario.node[133].nic.mac1609_4 SentAcknowledgements 0
scalar RSUExampleScenario.node[133].nic.mac1609_4 SNIRLostPackets 0
scalar RSUExampleScenario.node[133].nic.mac1609_4 RXTXLostPackets 0
scalar RSUExampleScenario.node[133].nic.mac1609_4 TotalLostPackets 0
scalar RSUExampleScenario.node[133].nic.mac1609_4 DroppedPacketsInMac 0
scalar RSUExampleScenario.node[133].nic.mac1609_4 TooLittleTime 0
scalar RSUExampleScenario.node[133].nic.mac1609_4 TimesIntoBackoff 974
scalar RSUExampleScenario.node[133].nic.mac1609_4 SlotsBackoff 1477
scalar RSUExampleScenario.node[133].nic.mac1609_4 NumInternalContention 0
scalar RSUExampleScenario.node[133].nic.mac1609_4 totalBusyTime 0.283086
scalar RSUExampleScenario.node[133].veinsmobility startTime 27
scalar RSUExampleScenario.node[133].veinsmobility totalTime 973
scalar RSUExampleScenario.node[133].veinsmobility stopTime 1000
scalar RSUExampleScenario.node[133].veinsmobility minSpeed 0
scalar RSUExampleScenario.node[133].veinsmobility maxSpeed 28.132341799421
scalar RSUExampleScenario.node[133].veinsmobility totalDistance 12820.683030269
scalar RSUExampleScenario.node[133].veinsmobility totalCO2Emission 2593.3532255823
scalar RSUExampleScenario.node[52].appl generatedWSMs 995
scalar RSUExampleScenario.node[52].appl receivedWSMs 106
scalar RSUExampleScenario.node[52].appl generatedBSMs 0
scalar RSUExampleScenario.node[52].appl receivedBSMs 0
scalar RSUExampleScenario.node[52].appl generatedWSAs 0
scalar RSUExampleScenario.node[52].appl receivedWSAs 0
scalar RSUExampleScenario.node[52].nic.phy80211p busyTime 2.4865520728008e-05
scalar RSUExampleScenario.node[52].nic.mac1609_4 ReceivedUnicastPackets 0
scalar RSUExampleScenario.node[52].nic.mac1609_4 ReceivedBroadcasts 106
scalar RSUExampleScenario.node[52].nic.mac1609_4 SentPackets 994
scalar RSUExampleScenario.node[52].nic.mac1609_4 SentAcknowledgements 0
scalar RSUExampleScenario.node[52].nic.mac1609_4 SNIRLostPackets 0
scalar RSUExampleScenario.node[52].nic.mac1609_4 RXTXLostPackets 0
scalar RSUExampleScenario.node[52].nic.mac1609_4 TotalLostPackets 0
scalar RSUExampleScenario.node[52].nic.mac1609_4 DroppedPacketsInMac 0
scalar RSUExampleScenario.node[52].nic.mac1609_4 TooLittleTime 0
scalar RSUExampleScenario.node[52].nic.mac1609_4 TimesIntoBackoff 994
scalar RSUExampleScenario.node[52].nic.mac1609_4 SlotsBackoff 1514
scalar RSUExampleScenario.node[52].nic.mac1609_4 NumInternalContention 0
scalar RSUExampleScenario.node[52].nic.mac1609_4 totalBusyTime 0.256194
scalar RSUExampleScenario.node[52].veinsmobility startTime 11
scalar RSUExampleScenario.node[52].veinsmobility totalTime 989
scalar RSUExampleScenario.node[52].veinsmobility stopTime 1000
scalar RSUExampleScenario.node[52].veinsmobility minSpeed 0
scalar RSUExampleScenario.node[52].veinsmobility maxSpeed 37.387092291853
scalar RSUExampleScenario.node[52].veinsmobility totalDistance 16011.127153336
scalar RSUExampleScenario.node[52].veinsmobility totalCO2Emission 3437.5077389001
scalar RSUExampleScenario.node[142].appl generatedWSMs 993
scalar RSUExampleScenario.node[142].appl receivedWSMs 678
scalar RSUExampleScenario.node[142].appl generatedBSMs 0
scalar RSUExampleScenario.node[142].appl receivedBSMs 0
scalar RSUExampleScenario.node[142].appl generatedWSAs 0
scalar RSUExampleScenario.node[142].appl receivedWSAs 0
scalar RSUExampleScenario.node[142].nic.phy80211p busyTime 0.00016294953656025
scalar RSUExampleScenario.node[142].nic.mac1609_4 ReceivedUnicastPackets 0
scalar RSUExampleScenario.node[142].nic.mac1609_4 ReceivedBroadcasts 678
scalar RSUExampleScenario.node[142].nic.mac1609_4 SentPackets 992
scalar RSUExampleScenario.node[142].nic.mac1609_4 SentAcknowledgements 0
scalar RSUExampleScenario.node[142].nic.mac1609_4 SNIRLostPackets 4
scalar RSUExampleScenario.node[142].nic.mac1609_4 RXTXLostPackets 0
scalar RSUExampleScenario.node[142].nic.mac1609_4 TotalLostPackets 4
scalar RSUExampleScenario.node[142].nic.mac1609_4 DroppedPacketsInMac 0
scalar RSUExampleScenario.node[142].nic.mac1609_4 TooLittleTime 0
scalar RSUExampleScenario.node[142].nic.mac1609_4 TimesIntoBackoff 996
scalar RSUExampleScenario.node[142].nic.mac1609_4 SlotsBackoff 1472
scalar RSUExampleScenario.node[142].nic.mac1609_4 NumInternalContention 0
scalar RSUExampleScenario.node[142].nic.mac1609_4 totalBusyTime 0.388896
scalar RSUExampleScenario.node[142].veinsmobility startTime 29
scalar RSUExampleScenario.node[142].veinsmobility totalTime 971
scalar RSUExampleScenario.node[142].veinsmobility stopTime 1000
scalar RSUExampleScenario.node[142].veinsmobility minSpeed 0
scalar RSUExampleScenario.node[142].veinsmobility maxSpeed 20.781951505159
scalar RSUExampleScenario.node[142].veinsmobility totalDistance 9698.5825168757
scalar RSUExampleScenario.node[142].veinsmobility totalCO2Emission 2151.7697662313
scalar RSUExampleScenario.node[77].appl generatedWSMs 984
scalar RSUExampleScenario.node[77].appl receivedWSMs 205
scalar RSUExampleScenario.node[77].appl generatedBSMs 0
scalar RSUExampleScenario.node[77].appl receivedBSMs 0
scalar RSUExampleScenario.node[77].appl generatedWSAs 0
scalar RSUExampleScenario.node[77].appl receivedWSAs 0
scalar RSUExampleScenario.node[77].nic.phy80211p busyTime 4.8333333333334e-05
scalar RSUExampleScenario.node[77].nic.mac1609_4 ReceivedUnicastPackets 0
scalar RSUExampleScenario.node[77].nic.mac1609_4 ReceivedBroadcasts 205
scalar RSUExampleScenario.node[77].nic.mac1609_4 SentPackets 983
scalar RSUExampleScenario.node[77].nic.mac1609_4 SentAcknowledgements 0
scalar RSUExampleScenario.node[77].nic.mac1609_4 SNIRLostPackets 0
scalar RSUExampleScenario.node[77].nic.mac1609_4 RXTXLostPackets 0
scalar RSUExampleScenario.node[77].nic.mac1609_4 TotalLostPackets 0
scalar RSUExampleScenario.node[77].nic.mac1609_4 DroppedPacketsInMac 0
scalar RSUExampleScenario.node[77].nic.mac1609_4 TooLittleTime 0
scalar RSUExampleScenario.node[77].nic.mac1609_4 TimesIntoBackoff 983
scalar RSUExampleScenario.node[77].nic.mac1609_4 SlotsBackoff 1512
scalar RSUExampleScenario.node[77].nic.mac1609_4 NumInternalContention 0
scalar RSUExampleScenario.node[77].nic.mac1609_4 totalBusyTime 0.276599
scalar RSUExampleScenario.node[77].veinsmobility startTime 16
scalar RSUExampleScenario.node[77].veinsmobility totalTime 984
scalar RSUExampleScenario.node[77].veinsmobility stopTime 1000
scalar RSUExampleScenario.node[77].veinsmobility minSpeed 0
scalar RSUExampleScenario.node[77].veinsmobility maxSpeed 17.75195151227
scalar RSUExampleScenario.node[77].veinsmobility totalDistance 9967.1706638299
scalar RSUExampleScenario.node[77].veinsmobility totalCO2Emission 2242.7746445387
scalar RSUExampleScenario.manager roiArea 0
scalar RSUExampleScenario.rsu[0].appl generatedWSMs 20
scalar RSUExampleScenario.rsu[0].appl receivedWSMs 292
scalar RSUExampleScenario.rsu[0].appl generatedBSMs 0
scalar RSUExampleScenario.rsu[0].appl receivedBSMs 0
scalar RSUExampleScenario.rsu[0].appl generatedWSAs 0
scalar RSUExampleScenario.rsu[0].appl receivedWSAs 0
scalar RSUExampleScenario.rsu[0].nic.phy80211p busyTime 6.7744e-05
scalar RSUExampleScenario.rsu[0].nic.mac1609_4 ReceivedUnicastPackets 0
scalar RSUExampleScenario.rsu[0].nic.mac1609_4 ReceivedBroadcasts 292
scalar RSUExampleScenario.rsu[0].nic.mac1609_4 SentPackets 20
scalar RSUExampleScenario.rsu[0].nic.mac1609_4 SentAcknowledgements 0
scalar RSUExampleScenario.rsu[0].nic.mac1609_4 SNIRLostPackets 0
scalar RSUExampleScenario.rsu[0].nic.mac1609_4 RXTXLostPackets 0
scalar RSUExampleScenario.rsu[0].nic.mac1609_4 TotalLostPackets 0
scalar RSUExampleScenario.rsu[0].nic.mac1609_4 DroppedPacketsInMac 0
scalar RSUExampleScenario.rsu[0].nic.mac1609_4 TooLittleTime 0
scalar RSUExampleScenario.rsu[0].nic.mac1609_4 TimesIntoBackoff 20
scalar RSUExampleScenario.rsu[0].nic.mac1609_4 SlotsBackoff 75
scalar RSUExampleScenario.rsu[0].nic.mac1609_4 NumInternalContention 0
scalar RSUExampleScenario.rsu[0].nic.mac1609_4 totalBusyTime 0.072404
scalar RSUExampleScenario.rsu[1].appl generatedWSMs 20
scalar RSUExampleScenario.rsu[1].appl receivedWSMs 610
scalar RSUExampleScenario.rsu[1].appl generatedBSMs 0
scalar RSUExampleScenario.rsu[1].appl receivedBSMs 0
scalar RSUExampleScenario.rsu[1].appl generatedWSAs 0
scalar RSUExampleScenario.rsu[1].appl receivedWSAs 0
scalar RSUExampleScenario.rsu[1].nic.phy80211p busyTime 0.00014152
scalar RSUExampleScenario.rsu[1].nic.mac1609_4 ReceivedUnicastPackets 0
scalar RSUExampleScenario.rsu[1].nic.mac1609_4 ReceivedBroadcasts 610
scalar RSUExampleScenario.rsu[1].nic.mac1609_4 SentPackets 20
scalar RSUExampleScenario.rsu[1].nic.mac1609_4 SentAcknowledgements 0
scalar RSUExampleScenario.rsu[1].nic.mac1609_4 SNIRLostPackets 0
scalar RSUExampleScenario.rsu[1].nic.mac1609_4 RXTXLostPackets 0
scalar RSUExampleScenario.rsu[1].nic.mac1609_4 TotalLostPackets 0
scalar RSUExampleScenario.rsu[1].nic.mac1609_4 DroppedPacketsInMac 0
scalar RSUExampleScenario.rsu[1].nic.mac1609_4 TooLittleTime 0
scalar RSUExampleScenario.rsu[1].nic.mac1609_4 TimesIntoBackoff 20
scalar RSUExampleScenario.rsu[1].nic.mac1609_4 SlotsBackoff 57
scalar RSUExampleScenario.rsu[1].nic.mac1609_4 NumInternalContention 0
scalar RSUExampleScenario.rsu[1].nic.mac1609_4 totalBusyTime 0.14618
scalar RSUExampleScenario.rsu[2].appl generatedWSMs 20
scalar RSUExampleScenario.rsu[2].appl receivedWSMs 1479
scalar RSUExampleScenario.rsu[2].appl generatedBSMs 0
scalar RSUExampleScenario.rsu[2].appl receivedBSMs 0
scalar RSUExampleScenario.rsu[2].appl generatedWSAs 0
scalar RSUExampleScenario.rsu[2].appl receivedWSAs 0
scalar RSUExampleScenario.rsu[2].nic.phy80211p busyTime 0.00034312800000001
scalar RSUExampleScenario.rsu[2].nic.mac1609_4 ReceivedUnicastPackets 0
scalar RSUExampleScenario.rsu[2].nic.mac1609_4 ReceivedBroadcasts 1479
scalar RSUExampleScenario.rsu[2].nic.mac1609_4 SentPackets 20
scalar RSUExampleScenario.rsu[2].nic.mac1609_4 SentAcknowledgements 0
scalar RSUExampleScenario.rsu[2].nic.mac1609_4 SNIRLostPackets 0
scalar RSUExampleScenario.rsu[2].nic.mac1609_4 RXTXLostPackets 0
scalar RSUExampleScenario.rsu[2].nic.mac1609_4 TotalLostPackets 0
scalar RSUExampleScenario.rsu[2].nic.mac1609_4 DroppedPacketsInMac 0
scalar RSUExampleScenario.rsu[2].nic.mac1609_4 TooLittleTime 0
scalar RSUExampleScenario.rsu[2].nic.mac1609_4 TimesIntoBackoff 20
scalar RSUExampleScenario.rsu[2].nic.mac1609_4 SlotsBackoff 57
scalar RSUExampleScenario.rsu[2].nic.mac1609_4 NumInternalContention 0
scalar RSUExampleScenario.rsu[2].nic.mac1609_4 totalBusyTime 0.347788
scalar RSUExampleScenario.rsu[3].appl generatedWSMs 20
scalar RSUExampleScenario.rsu[3].appl receivedWSMs 37
scalar RSUExampleScenario.rsu[3].appl generatedBSMs 0
scalar RSUExampleScenario.rsu[3].appl receivedBSMs 0
scalar RSUExampleScenario.rsu[3].appl generatedWSAs 0
scalar RSUExampleScenario.rsu[3].appl receivedWSAs 0
scalar RSUExampleScenario.rsu[3].nic.phy80211p busyTime 8.584e-06
scalar RSUExampleScenario.rsu[3].nic.mac1609_4 ReceivedUnicastPackets 0
scalar RSUExampleScenario.rsu[3].nic.mac1609_4 ReceivedBroadcasts 37
scalar RSUExampleScenario.rsu[3].nic.mac1609_4 SentPackets 20
scalar RSUExampleScenario.rsu[3].nic.mac1609_4 SentAcknowledgements 0
scalar RSUExampleScenario.rsu[3].nic.mac1609_4 SNIRLostPackets 0
scalar RSUExampleScenario.rsu[3].nic.mac1609_4 RXTXLostPackets 0
scalar RSUExampleScenario.rsu[3].nic.mac1609_4 TotalLostPackets 0
scalar RSUExampleScenario.rsu[3].nic.mac1609_4 DroppedPacketsInMac 0
scalar RSUExampleScenario.rsu[3].nic.mac1609_4 TooLittleTime 0
scalar RSUExampleScenario.rsu[3].nic.mac1609_4 TimesIntoBackoff 20
scalar RSUExampleScenario.rsu[3].nic.mac1609_4 SlotsBackoff 55
scalar RSUExampleScenario.rsu[3].nic.mac1609_4 NumInternalContention 0
scalar RSUExampleScenario.rsu[3].nic.mac1609_4 totalBusyTime 0.013244
scalar RSUExampleScenario.rsu[4].appl generatedWSMs 20
scalar RSUExampleScenario.rsu[4].appl receivedWSMs 366
scalar RSUExampleScenario.rsu[4].appl generatedBSMs 0
scalar RSUExampleScenario.rsu[4].appl receivedBSMs 0
scalar RSUExampleScenario.rsu[4].appl generatedWSAs 0
scalar RSUExampleScenario.rsu[4].appl receivedWSAs 0
scalar RSUExampleScenario.rsu[4].nic.phy80211p busyTime 8.4912e-05
scalar RSUExampleScenario.rsu[4].nic.mac1609_4 ReceivedUnicastPackets 0
scalar RSUExampleScenario.rsu[4].nic.mac1609_4 ReceivedBroadcasts 366
scalar RSUExampleScenario.rsu[4].nic.mac1609_4 SentPackets 20
scalar RSUExampleScenario.rsu[4].nic.mac1609_4 SentAcknowledgements 0
scalar RSUExampleScenario.rsu[4].nic.mac1609_4 SNIRLostPackets 0
scalar RSUExampleScenario.rsu[4].nic.mac1609_4 RXTXLostPackets 0
scalar RSUExampleScenario.rsu[4].nic.mac1609_4 TotalLostPackets 0
scalar RSUExampleScenario.rsu[4].nic.mac1609_4 DroppedPacketsInMac 0
scalar RSUExampleScenario.rsu[4].nic.mac1609_4 TooLittleTime 0
scalar RSUExampleScenario.rsu[4].nic.mac1609_4 TimesIntoBackoff 20
scalar RSUExampleScenario.rsu[4].nic.mac1609_4 SlotsBackoff 52
scalar RSUExampleScenario.rsu[4].nic.mac1609_4 NumInternalContention 0
scalar RSUExampleScenario.rsu[4].nic.mac1609_4 totalBusyTime 0.089572
scalar RSUExampleScenario.rsu[5].appl generatedWSMs 20
scalar RSUExampleScenario.rsu[5].appl receivedWSMs 153
scalar RSUExampleScenario.rsu[5].appl generatedBSMs 0
scalar RSUExampleScenario.rsu[5].appl receivedBSMs 0
scalar RSUExampleScenario.rsu[5].appl generatedWSAs 0
scalar RSUExampleScenario.rsu[5].appl receivedWSAs 0
scalar RSUExampleScenario.rsu[5].nic.phy80211p busyTime 3.5496e-05
scalar RSUExampleScenario.rsu[5].nic.mac1609_4 ReceivedUnicastPackets 0
scalar RSUExampleScenario.rsu[5].nic.mac1609_4 ReceivedBroadcasts 153
scalar RSUExampleScenario.rsu[5].nic.mac1609_4 SentPackets 20
scalar RSUExampleScenario.rsu[5].nic.mac1609_4 SentAcknowledgements 0
scalar RSUExampleScenario.rsu[5].nic.mac1609_4 SNIRLostPackets 0
scalar RSUExampleScenario.rsu[5].nic.mac1609_4 RXTXLostPackets 0
scalar RSUExampleScenario.rsu[5].nic.mac1609_4 TotalLostPackets 0
scalar RSUExampleScenario.rsu[5].nic.mac1609_4 DroppedPacketsInMac 0
scalar RSUExampleScenario.rsu[5].nic.mac1609_4 TooLittleTime 0
scalar RSUExampleScenario.rsu[5].nic.mac1609_4 TimesIntoBackoff 20
scalar RSUExampleScenario.rsu[5].nic.mac1609_4 SlotsBackoff 76
scalar RSUExampleScenario.rsu[5].nic.mac1609_4 NumInternalContention 0
scalar RSUExampleScenario.rsu[5].nic.mac1609_4 totalBusyTime 0.040156

