file 94872567 1673681329                                        
version 2
run WithChannelSwitching-0-20230114-02:27:09-38815
attr configname WithChannelSwitching
attr datetime 20230114-02:27:09
attr experiment WithChannelSwitching
attr inifile omnetpp.ini
attr iterationvars ""
attr iterationvarsf ""
attr measurement ""
attr network RSUExampleScenario
attr processid 38815
attr repetition 0
attr replication #0
attr resultdir results
attr runnumber 0
attr seedset 0
param *.**.nic.mac1609_4.useServiceChannel true
param *.node[*].appl.dataOnSch true
param *.rsu[*].appl.dataOnSch true
param *.playgroundSizeX 35000m
param *.playgroundSizeY 35000m
param *.playgroundSizeZ 50m
param *.annotations.draw true
param *.manager.updateInterval 1s
param *.manager.host "\"localhost\""
param *.manager.port 9999
param *.manager.autoShutdown true
param *.manager.launchConfig "xmldoc(\"cologne.launchd.xml\")"
param *.rsu[0].mobility.x 13000
param *.rsu[0].mobility.y 18000
param *.rsu[0].mobility.z 0
param *.rsu[1].mobility.x 15000
param *.rsu[1].mobility.y 21000
param *.rsu[1].mobility.z 0
param *.rsu[2].mobility.x 17000
param *.rsu[2].mobility.y 18000
param *.rsu[2].mobility.z 34
param *.rsu[3].mobility.x 18000
param *.rsu[3].mobility.y 21000
param *.rsu[3].mobility.z 0
param *.rsu[4].mobility.x 13000
param *.rsu[4].mobility.y 15000
param *.rsu[4].mobility.z 0
param *.rsu[5].mobility.x 20000
param *.rsu[5].mobility.y 16000
param *.rsu[5].mobility.z 34
param *.rsu[*].applType "\"TraCIDemoRSU11p\""
param *.rsu[*].appl.headerLength "80 bit"
param *.rsu[*].appl.sendBeacons false
param *.rsu[*].appl.dataOnSch false
param *.rsu[*].appl.beaconInterval 1s
param *.rsu[*].appl.beaconUserPriority 7
param *.rsu[*].appl.dataUserPriority 5
param *.rsu[*].nic.phy80211p.antennaOffsetZ "0 m"
param *.connectionManager.sendDirect true
param *.connectionManager.maxInterfDist 400m
param *.connectionManager.drawMaxIntfDist true
param *.**.nic.mac1609_4.useServiceChannel false
param *.**.nic.mac1609_4.txPower 120mW
param *.**.nic.mac1609_4.bitrate 6Mbps
param *.**.nic.phy80211p.minPowerLevel -220dBm
param *.**.nic.phy80211p.useNoiseFloor false
param *.**.nic.phy80211p.noiseFloor -98dBm
param *.**.nic.phy80211p.decider "xmldoc(\"config.xml\")"
param *.**.nic.phy80211p.analogueModels "xmldoc(\"config.xml\")"
param *.**.nic.phy80211p.usePropagationDelay true
param *.**.nic.phy80211p.antenna "xmldoc(\"antenna.xml\", \"/root/Antenna[@id='monopole']\")"
param *.node[*].nic.phy80211p.antennaOffsetY "0 m"
param *.node[*].nic.phy80211p.antennaOffsetZ "1.895 m"
param *.node[*].applType "\"TraCIDemo11p\""
param *.node[*].appl.headerLength "80 bit"
param *.node[*].appl.sendBeacons false
param *.node[*].appl.dataOnSch false
param *.node[*].appl.beaconInterval 5s
param *.node[*].veinsmobility.x 0
param *.node[*].veinsmobility.y 0
param *.node[*].veinsmobility.z 0
param *.node[*].veinsmobility.setHostSpeed false
param *.node[*0].veinsmobility.accidentCount 0
param *.node[*0].veinsmobility.accidentStart 73s
param *.node[*0].veinsmobility.accidentDuration 50s

vector 0 RSUExampleScenario.node[0].veinsmobility posx ETV
vector 1 RSUExampleScenario.node[0].veinsmobility posy ETV
vector 2 RSUExampleScenario.node[1].veinsmobility posx ETV
vector 3 RSUExampleScenario.node[1].veinsmobility posy ETV
vector 4 RSUExampleScenario.node[2].veinsmobility posx ETV
vector 5 RSUExampleScenario.node[2].veinsmobility posy ETV
vector 6 RSUExampleScenario.node[3].veinsmobility posx ETV
vector 7 RSUExampleScenario.node[3].veinsmobility posy ETV
vector 8 RSUExampleScenario.node[4].veinsmobility posx ETV
vector 9 RSUExampleScenario.node[4].veinsmobility posy ETV
vector 10 RSUExampleScenario.node[5].veinsmobility posx ETV
vector 11 RSUExampleScenario.node[5].veinsmobility posy ETV
vector 12 RSUExampleScenario.node[6].veinsmobility posx ETV
vector 13 RSUExampleScenario.node[6].veinsmobility posy ETV
vector 14 RSUExampleScenario.node[7].veinsmobility posx ETV
vector 15 RSUExampleScenario.node[7].veinsmobility posy ETV
vector 16 RSUExampleScenario.node[8].veinsmobility posx ETV
vector 17 RSUExampleScenario.node[8].veinsmobility posy ETV
vector 18 RSUExampleScenario.node[9].veinsmobility posx ETV
vector 19 RSUExampleScenario.node[9].veinsmobility posy ETV
vector 20 RSUExampleScenario.node[10].veinsmobility posx ETV
vector 21 RSUExampleScenario.node[10].veinsmobility posy ETV
vector 22 RSUExampleScenario.node[0].veinsmobility speed ETV
vector 23 RSUExampleScenario.node[1].veinsmobility speed ETV
vector 24 RSUExampleScenario.node[2].veinsmobility speed ETV
vector 25 RSUExampleScenario.node[3].veinsmobility speed ETV
vector 26 RSUExampleScenario.node[4].veinsmobility speed ETV
vector 27 RSUExampleScenario.node[5].veinsmobility speed ETV
vector 28 RSUExampleScenario.node[11].veinsmobility posx ETV
vector 29 RSUExampleScenario.node[11].veinsmobility posy ETV
vector 30 RSUExampleScenario.node[12].veinsmobility posx ETV
vector 31 RSUExampleScenario.node[12].veinsmobility posy ETV
vector 32 RSUExampleScenario.node[13].veinsmobility posx ETV
vector 33 RSUExampleScenario.node[13].veinsmobility posy ETV
vector 34 RSUExampleScenario.node[14].veinsmobility posx ETV
vector 35 RSUExampleScenario.node[14].veinsmobility posy ETV
vector 36 RSUExampleScenario.node[0].veinsmobility acceleration ETV
vector 37 RSUExampleScenario.node[0].veinsmobility co2emission ETV
vector 38 RSUExampleScenario.node[1].veinsmobility acceleration ETV
vector 39 RSUExampleScenario.node[1].veinsmobility co2emission ETV
vector 40 RSUExampleScenario.node[2].veinsmobility acceleration ETV
vector 41 RSUExampleScenario.node[2].veinsmobility co2emission ETV
vector 42 RSUExampleScenario.node[3].veinsmobility acceleration ETV
vector 43 RSUExampleScenario.node[3].veinsmobility co2emission ETV
vector 44 RSUExampleScenario.node[4].veinsmobility acceleration ETV
vector 45 RSUExampleScenario.node[4].veinsmobility co2emission ETV
vector 46 RSUExampleScenario.node[5].veinsmobility acceleration ETV
vector 47 RSUExampleScenario.node[5].veinsmobility co2emission ETV
vector 48 RSUExampleScenario.node[6].veinsmobility speed ETV
vector 49 RSUExampleScenario.node[7].veinsmobility speed ETV
vector 50 RSUExampleScenario.node[8].veinsmobility speed ETV
vector 51 RSUExampleScenario.node[9].veinsmobility speed ETV
vector 52 RSUExampleScenario.node[10].veinsmobility speed ETV
vector 53 RSUExampleScenario.node[15].veinsmobility posx ETV
vector 54 RSUExampleScenario.node[15].veinsmobility posy ETV
vector 55 RSUExampleScenario.node[16].veinsmobility posx ETV
vector 56 RSUExampleScenario.node[16].veinsmobility posy ETV
vector 57 RSUExampleScenario.node[17].veinsmobility posx ETV
vector 58 RSUExampleScenario.node[17].veinsmobility posy ETV
vector 59 RSUExampleScenario.node[18].veinsmobility posx ETV
vector 60 RSUExampleScenario.node[18].veinsmobility posy ETV
vector 61 RSUExampleScenario.node[19].veinsmobility posx ETV
vector 62 RSUExampleScenario.node[19].veinsmobility posy ETV
vector 63 RSUExampleScenario.node[6].veinsmobility acceleration ETV
vector 64 RSUExampleScenario.node[6].veinsmobility co2emission ETV
vector 65 RSUExampleScenario.node[7].veinsmobility acceleration ETV
vector 66 RSUExampleScenario.node[7].veinsmobility co2emission ETV
vector 67 RSUExampleScenario.node[8].veinsmobility acceleration ETV
vector 68 RSUExampleScenario.node[8].veinsmobility co2emission ETV
vector 69 RSUExampleScenario.node[9].veinsmobility acceleration ETV
vector 70 RSUExampleScenario.node[9].veinsmobility co2emission ETV
vector 71 RSUExampleScenario.node[10].veinsmobility acceleration ETV
vector 72 RSUExampleScenario.node[10].veinsmobility co2emission ETV
vector 73 RSUExampleScenario.node[11].veinsmobility speed ETV
vector 74 RSUExampleScenario.node[12].veinsmobility speed ETV
vector 75 RSUExampleScenario.node[13].veinsmobility speed ETV
vector 76 RSUExampleScenario.node[14].veinsmobility speed ETV
vector 77 RSUExampleScenario.node[20].veinsmobility posx ETV
vector 78 RSUExampleScenario.node[20].veinsmobility posy ETV
vector 79 RSUExampleScenario.node[21].veinsmobility posx ETV
vector 80 RSUExampleScenario.node[21].veinsmobility posy ETV
vector 81 RSUExampleScenario.node[22].veinsmobility posx ETV
vector 82 RSUExampleScenario.node[22].veinsmobility posy ETV
vector 83 RSUExampleScenario.node[23].veinsmobility posx ETV
vector 84 RSUExampleScenario.node[23].veinsmobility posy ETV
vector 85 RSUExampleScenario.node[24].veinsmobility posx ETV
vector 86 RSUExampleScenario.node[24].veinsmobility posy ETV
vector 87 RSUExampleScenario.node[11].veinsmobility acceleration ETV
vector 88 RSUExampleScenario.node[11].veinsmobility co2emission ETV
vector 89 RSUExampleScenario.node[12].veinsmobility acceleration ETV
vector 90 RSUExampleScenario.node[12].veinsmobility co2emission ETV
vector 91 RSUExampleScenario.node[13].veinsmobility acceleration ETV
vector 92 RSUExampleScenario.node[13].veinsmobility co2emission ETV
vector 93 RSUExampleScenario.node[14].veinsmobility acceleration ETV
vector 94 RSUExampleScenario.node[14].veinsmobility co2emission ETV
vector 95 RSUExampleScenario.node[15].veinsmobility speed ETV
vector 96 RSUExampleScenario.node[16].veinsmobility speed ETV
vector 97 RSUExampleScenario.node[17].veinsmobility speed ETV
vector 98 RSUExampleScenario.node[18].veinsmobility speed ETV
vector 99 RSUExampleScenario.node[19].veinsmobility speed ETV
vector 100 RSUExampleScenario.node[25].veinsmobility posx ETV
vector 101 RSUExampleScenario.node[25].veinsmobility posy ETV
vector 102 RSUExampleScenario.node[26].veinsmobility posx ETV
vector 103 RSUExampleScenario.node[26].veinsmobility posy ETV
vector 104 RSUExampleScenario.node[27].veinsmobility posx ETV
vector 105 RSUExampleScenario.node[27].veinsmobility posy ETV
vector 106 RSUExampleScenario.node[28].veinsmobility posx ETV
vector 107 RSUExampleScenario.node[28].veinsmobility posy ETV
vector 108 RSUExampleScenario.node[29].veinsmobility posx ETV
vector 109 RSUExampleScenario.node[29].veinsmobility posy ETV
vector 110 RSUExampleScenario.node[15].veinsmobility acceleration ETV
vector 111 RSUExampleScenario.node[15].veinsmobility co2emission ETV
vector 112 RSUExampleScenario.node[16].veinsmobility acceleration ETV
vector 113 RSUExampleScenario.node[16].veinsmobility co2emission ETV
vector 114 RSUExampleScenario.node[17].veinsmobility acceleration ETV
vector 115 RSUExampleScenario.node[17].veinsmobility co2emission ETV
vector 116 RSUExampleScenario.node[18].veinsmobility acceleration ETV
vector 117 RSUExampleScenario.node[18].veinsmobility co2emission ETV
vector 118 RSUExampleScenario.node[19].veinsmobility acceleration ETV
vector 119 RSUExampleScenario.node[19].veinsmobility co2emission ETV
vector 120 RSUExampleScenario.node[20].veinsmobility speed ETV
vector 121 RSUExampleScenario.node[21].veinsmobility speed ETV
vector 122 RSUExampleScenario.node[22].veinsmobility speed ETV
vector 123 RSUExampleScenario.node[23].veinsmobility speed ETV
vector 124 RSUExampleScenario.node[24].veinsmobility speed ETV
vector 125 RSUExampleScenario.node[30].veinsmobility posx ETV
vector 126 RSUExampleScenario.node[30].veinsmobility posy ETV
vector 127 RSUExampleScenario.node[31].veinsmobility posx ETV
vector 128 RSUExampleScenario.node[31].veinsmobility posy ETV
vector 129 RSUExampleScenario.node[32].veinsmobility posx ETV
vector 130 RSUExampleScenario.node[32].veinsmobility posy ETV
vector 131 RSUExampleScenario.node[33].veinsmobility posx ETV
vector 132 RSUExampleScenario.node[33].veinsmobility posy ETV
vector 133 RSUExampleScenario.node[34].veinsmobility posx ETV
vector 134 RSUExampleScenario.node[34].veinsmobility posy ETV
vector 135 RSUExampleScenario.node[20].veinsmobility acceleration ETV
vector 136 RSUExampleScenario.node[20].veinsmobility co2emission ETV
vector 137 RSUExampleScenario.node[21].veinsmobility acceleration ETV
vector 138 RSUExampleScenario.node[21].veinsmobility co2emission ETV
vector 139 RSUExampleScenario.node[22].veinsmobility acceleration ETV
vector 140 RSUExampleScenario.node[22].veinsmobility co2emission ETV
vector 141 RSUExampleScenario.node[23].veinsmobility acceleration ETV
vector 142 RSUExampleScenario.node[23].veinsmobility co2emission ETV
vector 143 RSUExampleScenario.node[24].veinsmobility acceleration ETV
vector 144 RSUExampleScenario.node[24].veinsmobility co2emission ETV
vector 145 RSUExampleScenario.node[25].veinsmobility speed ETV
vector 146 RSUExampleScenario.node[26].veinsmobility speed ETV
vector 147 RSUExampleScenario.node[27].veinsmobility speed ETV
vector 148 RSUExampleScenario.node[28].veinsmobility speed ETV
vector 149 RSUExampleScenario.node[29].veinsmobility speed ETV
vector 150 RSUExampleScenario.node[35].veinsmobility posx ETV
vector 151 RSUExampleScenario.node[35].veinsmobility posy ETV
vector 152 RSUExampleScenario.node[36].veinsmobility posx ETV
vector 153 RSUExampleScenario.node[36].veinsmobility posy ETV
vector 154 RSUExampleScenario.node[37].veinsmobility posx ETV
vector 155 RSUExampleScenario.node[37].veinsmobility posy ETV
vector 156 RSUExampleScenario.node[38].veinsmobility posx ETV
vector 157 RSUExampleScenario.node[38].veinsmobility posy ETV
vector 158 RSUExampleScenario.node[39].veinsmobility posx ETV
vector 159 RSUExampleScenario.node[39].veinsmobility posy ETV
vector 160 RSUExampleScenario.node[25].veinsmobility acceleration ETV
vector 161 RSUExampleScenario.node[25].veinsmobility co2emission ETV
vector 162 RSUExampleScenario.node[26].veinsmobility acceleration ETV
vector 163 RSUExampleScenario.node[26].veinsmobility co2emission ETV
vector 164 RSUExampleScenario.node[27].veinsmobility acceleration ETV
vector 165 RSUExampleScenario.node[27].veinsmobility co2emission ETV
vector 166 RSUExampleScenario.node[28].veinsmobility acceleration ETV
vector 167 RSUExampleScenario.node[28].veinsmobility co2emission ETV
vector 168 RSUExampleScenario.node[29].veinsmobility acceleration ETV
vector 169 RSUExampleScenario.node[29].veinsmobility co2emission ETV
vector 170 RSUExampleScenario.node[30].veinsmobility speed ETV
vector 171 RSUExampleScenario.node[31].veinsmobility speed ETV
vector 172 RSUExampleScenario.node[32].veinsmobility speed ETV
vector 173 RSUExampleScenario.node[33].veinsmobility speed ETV
vector 174 RSUExampleScenario.node[34].veinsmobility speed ETV
vector 175 RSUExampleScenario.node[40].veinsmobility posx ETV
vector 176 RSUExampleScenario.node[40].veinsmobility posy ETV
vector 177 RSUExampleScenario.node[41].veinsmobility posx ETV
vector 178 RSUExampleScenario.node[41].veinsmobility posy ETV
vector 179 RSUExampleScenario.node[42].veinsmobility posx ETV
vector 180 RSUExampleScenario.node[42].veinsmobility posy ETV
vector 181 RSUExampleScenario.node[43].veinsmobility posx ETV
vector 182 RSUExampleScenario.node[43].veinsmobility posy ETV
vector 183 RSUExampleScenario.node[44].veinsmobility posx ETV
vector 184 RSUExampleScenario.node[44].veinsmobility posy ETV
vector 185 RSUExampleScenario.node[30].veinsmobility acceleration ETV
vector 186 RSUExampleScenario.node[30].veinsmobility co2emission ETV
vector 187 RSUExampleScenario.node[31].veinsmobility acceleration ETV
vector 188 RSUExampleScenario.node[31].veinsmobility co2emission ETV
vector 189 RSUExampleScenario.node[32].veinsmobility acceleration ETV
vector 190 RSUExampleScenario.node[32].veinsmobility co2emission ETV
vector 191 RSUExampleScenario.node[33].veinsmobility acceleration ETV
vector 192 RSUExampleScenario.node[33].veinsmobility co2emission ETV
vector 193 RSUExampleScenario.node[34].veinsmobility acceleration ETV
vector 194 RSUExampleScenario.node[34].veinsmobility co2emission ETV
vector 195 RSUExampleScenario.node[35].veinsmobility speed ETV
vector 196 RSUExampleScenario.node[36].veinsmobility speed ETV
vector 197 RSUExampleScenario.node[37].veinsmobility speed ETV
vector 198 RSUExampleScenario.node[38].veinsmobility speed ETV
vector 199 RSUExampleScenario.node[39].veinsmobility speed ETV
vector 200 RSUExampleScenario.node[45].veinsmobility posx ETV
vector 201 RSUExampleScenario.node[45].veinsmobility posy ETV
vector 202 RSUExampleScenario.node[46].veinsmobility posx ETV
vector 203 RSUExampleScenario.node[46].veinsmobility posy ETV
vector 204 RSUExampleScenario.node[47].veinsmobility posx ETV
vector 205 RSUExampleScenario.node[47].veinsmobility posy ETV
vector 206 RSUExampleScenario.node[35].veinsmobility acceleration ETV
vector 207 RSUExampleScenario.node[35].veinsmobility co2emission ETV
vector 208 RSUExampleScenario.node[36].veinsmobility acceleration ETV
vector 209 RSUExampleScenario.node[36].veinsmobility co2emission ETV
vector 210 RSUExampleScenario.node[37].veinsmobility acceleration ETV
vector 211 RSUExampleScenario.node[37].veinsmobility co2emission ETV
vector 212 RSUExampleScenario.node[38].veinsmobility acceleration ETV
vector 213 RSUExampleScenario.node[38].veinsmobility co2emission ETV
vector 214 RSUExampleScenario.node[39].veinsmobility acceleration ETV
vector 215 RSUExampleScenario.node[39].veinsmobility co2emission ETV
vector 216 RSUExampleScenario.node[40].veinsmobility speed ETV
vector 217 RSUExampleScenario.node[41].veinsmobility speed ETV
vector 218 RSUExampleScenario.node[42].veinsmobility speed ETV
vector 219 RSUExampleScenario.node[43].veinsmobility speed ETV
vector 220 RSUExampleScenario.node[44].veinsmobility speed ETV
vector 221 RSUExampleScenario.node[48].veinsmobility posx ETV
vector 222 RSUExampleScenario.node[48].veinsmobility posy ETV
vector 223 RSUExampleScenario.node[49].veinsmobility posx ETV
vector 224 RSUExampleScenario.node[49].veinsmobility posy ETV
vector 225 RSUExampleScenario.node[50].veinsmobility posx ETV
vector 226 RSUExampleScenario.node[50].veinsmobility posy ETV
vector 227 RSUExampleScenario.node[51].veinsmobility posx ETV
vector 228 RSUExampleScenario.node[51].veinsmobility posy ETV
vector 229 RSUExampleScenario.node[52].veinsmobility posx ETV
vector 230 RSUExampleScenario.node[52].veinsmobility posy ETV
vector 231 RSUExampleScenario.node[40].veinsmobility acceleration ETV
vector 232 RSUExampleScenario.node[40].veinsmobility co2emission ETV
vector 233 RSUExampleScenario.node[41].veinsmobility acceleration ETV
vector 234 RSUExampleScenario.node[41].veinsmobility co2emission ETV
vector 235 RSUExampleScenario.node[42].veinsmobility acceleration ETV
vector 236 RSUExampleScenario.node[42].veinsmobility co2emission ETV
vector 237 RSUExampleScenario.node[43].veinsmobility acceleration ETV
vector 238 RSUExampleScenario.node[43].veinsmobility co2emission ETV
vector 239 RSUExampleScenario.node[44].veinsmobility acceleration ETV
vector 240 RSUExampleScenario.node[44].veinsmobility co2emission ETV
vector 241 RSUExampleScenario.node[45].veinsmobility speed ETV
vector 242 RSUExampleScenario.node[46].veinsmobility speed ETV
vector 243 RSUExampleScenario.node[47].veinsmobility speed ETV
vector 244 RSUExampleScenario.node[53].veinsmobility posx ETV
vector 245 RSUExampleScenario.node[53].veinsmobility posy ETV
vector 246 RSUExampleScenario.node[54].veinsmobility posx ETV
vector 247 RSUExampleScenario.node[54].veinsmobility posy ETV
vector 248 RSUExampleScenario.node[55].veinsmobility posx ETV
vector 249 RSUExampleScenario.node[55].veinsmobility posy ETV
vector 250 RSUExampleScenario.node[56].veinsmobility posx ETV
vector 251 RSUExampleScenario.node[56].veinsmobility posy ETV
vector 252 RSUExampleScenario.node[57].veinsmobility posx ETV
vector 253 RSUExampleScenario.node[57].veinsmobility posy ETV
vector 254 RSUExampleScenario.node[45].veinsmobility acceleration ETV
vector 255 RSUExampleScenario.node[45].veinsmobility co2emission ETV
vector 256 RSUExampleScenario.node[46].veinsmobility acceleration ETV
vector 257 RSUExampleScenario.node[46].veinsmobility co2emission ETV
vector 258 RSUExampleScenario.node[47].veinsmobility acceleration ETV
vector 259 RSUExampleScenario.node[47].veinsmobility co2emission ETV
vector 260 RSUExampleScenario.node[48].veinsmobility speed ETV
vector 261 RSUExampleScenario.node[49].veinsmobility speed ETV
vector 262 RSUExampleScenario.node[50].veinsmobility speed ETV
vector 263 RSUExampleScenario.node[51].veinsmobility speed ETV
vector 264 RSUExampleScenario.node[52].veinsmobility speed ETV
vector 265 RSUExampleScenario.node[58].veinsmobility posx ETV
vector 266 RSUExampleScenario.node[58].veinsmobility posy ETV
vector 267 RSUExampleScenario.node[59].veinsmobility posx ETV
vector 268 RSUExampleScenario.node[59].veinsmobility posy ETV
vector 269 RSUExampleScenario.node[60].veinsmobility posx ETV
vector 270 RSUExampleScenario.node[60].veinsmobility posy ETV
vector 271 RSUExampleScenario.node[61].veinsmobility posx ETV
vector 272 RSUExampleScenario.node[61].veinsmobility posy ETV
vector 273 RSUExampleScenario.node[62].veinsmobility posx ETV
vector 274 RSUExampleScenario.node[62].veinsmobility posy ETV
vector 275 RSUExampleScenario.node[48].veinsmobility acceleration ETV
vector 276 RSUExampleScenario.node[48].veinsmobility co2emission ETV
vector 277 RSUExampleScenario.node[49].veinsmobility acceleration ETV
vector 278 RSUExampleScenario.node[49].veinsmobility co2emission ETV
vector 279 RSUExampleScenario.node[50].veinsmobility acceleration ETV
vector 280 RSUExampleScenario.node[50].veinsmobility co2emission ETV
vector 281 RSUExampleScenario.node[51].veinsmobility acceleration ETV
vector 282 RSUExampleScenario.node[51].veinsmobility co2emission ETV
vector 283 RSUExampleScenario.node[52].veinsmobility acceleration ETV
vector 284 RSUExampleScenario.node[52].veinsmobility co2emission ETV
vector 285 RSUExampleScenario.node[53].veinsmobility speed ETV
vector 286 RSUExampleScenario.node[54].veinsmobility speed ETV
vector 287 RSUExampleScenario.node[55].veinsmobility speed ETV
vector 288 RSUExampleScenario.node[56].veinsmobility speed ETV
vector 289 RSUExampleScenario.node[57].veinsmobility speed ETV
vector 290 RSUExampleScenario.node[63].veinsmobility posx ETV
vector 291 RSUExampleScenario.node[63].veinsmobility posy ETV
vector 292 RSUExampleScenario.node[64].veinsmobility posx ETV
vector 293 RSUExampleScenario.node[64].veinsmobility posy ETV
vector 294 RSUExampleScenario.node[65].veinsmobility posx ETV
vector 295 RSUExampleScenario.node[65].veinsmobility posy ETV
vector 296 RSUExampleScenario.node[66].veinsmobility posx ETV
vector 297 RSUExampleScenario.node[66].veinsmobility posy ETV
vector 298 RSUExampleScenario.node[67].veinsmobility posx ETV
vector 299 RSUExampleScenario.node[67].veinsmobility posy ETV
vector 300 RSUExampleScenario.node[53].veinsmobility acceleration ETV
vector 301 RSUExampleScenario.node[53].veinsmobility co2emission ETV
vector 302 RSUExampleScenario.node[54].veinsmobility acceleration ETV
vector 303 RSUExampleScenario.node[54].veinsmobility co2emission ETV
vector 304 RSUExampleScenario.node[55].veinsmobility acceleration ETV
vector 305 RSUExampleScenario.node[55].veinsmobility co2emission ETV
vector 306 RSUExampleScenario.node[56].veinsmobility acceleration ETV
vector 307 RSUExampleScenario.node[56].veinsmobility co2emission ETV
vector 308 RSUExampleScenario.node[57].veinsmobility acceleration ETV
vector 309 RSUExampleScenario.node[57].veinsmobility co2emission ETV
vector 310 RSUExampleScenario.node[58].veinsmobility speed ETV
vector 311 RSUExampleScenario.node[59].veinsmobility speed ETV
vector 312 RSUExampleScenario.node[60].veinsmobility speed ETV
vector 313 RSUExampleScenario.node[61].veinsmobility speed ETV
vector 314 RSUExampleScenario.node[62].veinsmobility speed ETV
vector 315 RSUExampleScenario.node[68].veinsmobility posx ETV
vector 316 RSUExampleScenario.node[68].veinsmobility posy ETV
vector 317 RSUExampleScenario.node[69].veinsmobility posx ETV
vector 318 RSUExampleScenario.node[69].veinsmobility posy ETV
vector 319 RSUExampleScenario.node[70].veinsmobility posx ETV
vector 320 RSUExampleScenario.node[70].veinsmobility posy ETV
vector 321 RSUExampleScenario.node[71].veinsmobility posx ETV
vector 322 RSUExampleScenario.node[71].veinsmobility posy ETV
vector 323 RSUExampleScenario.node[72].veinsmobility posx ETV
vector 324 RSUExampleScenario.node[72].veinsmobility posy ETV
vector 325 RSUExampleScenario.node[58].veinsmobility acceleration ETV
vector 326 RSUExampleScenario.node[58].veinsmobility co2emission ETV
vector 327 RSUExampleScenario.node[59].veinsmobility acceleration ETV
vector 328 RSUExampleScenario.node[59].veinsmobility co2emission ETV
vector 329 RSUExampleScenario.node[60].veinsmobility acceleration ETV
vector 330 RSUExampleScenario.node[60].veinsmobility co2emission ETV
vector 331 RSUExampleScenario.node[61].veinsmobility acceleration ETV
vector 332 RSUExampleScenario.node[61].veinsmobility co2emission ETV
vector 333 RSUExampleScenario.node[62].veinsmobility acceleration ETV
vector 334 RSUExampleScenario.node[62].veinsmobility co2emission ETV
vector 335 RSUExampleScenario.node[63].veinsmobility speed ETV
vector 336 RSUExampleScenario.node[64].veinsmobility speed ETV
vector 337 RSUExampleScenario.node[65].veinsmobility speed ETV
vector 338 RSUExampleScenario.node[66].veinsmobility speed ETV
vector 339 RSUExampleScenario.node[67].veinsmobility speed ETV
vector 340 RSUExampleScenario.node[73].veinsmobility posx ETV
vector 341 RSUExampleScenario.node[73].veinsmobility posy ETV
vector 342 RSUExampleScenario.node[74].veinsmobility posx ETV
vector 343 RSUExampleScenario.node[74].veinsmobility posy ETV
vector 344 RSUExampleScenario.node[75].veinsmobility posx ETV
vector 345 RSUExampleScenario.node[75].veinsmobility posy ETV
vector 346 RSUExampleScenario.node[76].veinsmobility posx ETV
vector 347 RSUExampleScenario.node[76].veinsmobility posy ETV
vector 348 RSUExampleScenario.node[77].veinsmobility posx ETV
vector 349 RSUExampleScenario.node[77].veinsmobility posy ETV
vector 350 RSUExampleScenario.node[63].veinsmobility acceleration ETV
vector 351 RSUExampleScenario.node[63].veinsmobility co2emission ETV
vector 352 RSUExampleScenario.node[64].veinsmobility acceleration ETV
vector 353 RSUExampleScenario.node[64].veinsmobility co2emission ETV
vector 354 RSUExampleScenario.node[65].veinsmobility acceleration ETV
vector 355 RSUExampleScenario.node[65].veinsmobility co2emission ETV
vector 356 RSUExampleScenario.node[66].veinsmobility acceleration ETV
vector 357 RSUExampleScenario.node[66].veinsmobility co2emission ETV
vector 358 RSUExampleScenario.node[67].veinsmobility acceleration ETV
vector 359 RSUExampleScenario.node[67].veinsmobility co2emission ETV
vector 360 RSUExampleScenario.node[68].veinsmobility speed ETV
vector 361 RSUExampleScenario.node[69].veinsmobility speed ETV
vector 362 RSUExampleScenario.node[70].veinsmobility speed ETV
vector 363 RSUExampleScenario.node[71].veinsmobility speed ETV
vector 364 RSUExampleScenario.node[72].veinsmobility speed ETV
vector 365 RSUExampleScenario.node[78].veinsmobility posx ETV
vector 366 RSUExampleScenario.node[78].veinsmobility posy ETV
vector 367 RSUExampleScenario.node[79].veinsmobility posx ETV
vector 368 RSUExampleScenario.node[79].veinsmobility posy ETV
vector 369 RSUExampleScenario.node[80].veinsmobility posx ETV
vector 370 RSUExampleScenario.node[80].veinsmobility posy ETV
vector 371 RSUExampleScenario.node[81].veinsmobility posx ETV
vector 372 RSUExampleScenario.node[81].veinsmobility posy ETV
vector 373 RSUExampleScenario.node[82].veinsmobility posx ETV
vector 374 RSUExampleScenario.node[82].veinsmobility posy ETV
vector 375 RSUExampleScenario.node[83].veinsmobility posx ETV
vector 376 RSUExampleScenario.node[83].veinsmobility posy ETV
vector 377 RSUExampleScenario.node[68].veinsmobility acceleration ETV
vector 378 RSUExampleScenario.node[68].veinsmobility co2emission ETV
vector 379 RSUExampleScenario.node[69].veinsmobility acceleration ETV
vector 380 RSUExampleScenario.node[69].veinsmobility co2emission ETV
vector 381 RSUExampleScenario.node[70].veinsmobility acceleration ETV
vector 382 RSUExampleScenario.node[70].veinsmobility co2emission ETV
vector 383 RSUExampleScenario.node[71].veinsmobility acceleration ETV
vector 384 RSUExampleScenario.node[71].veinsmobility co2emission ETV
vector 385 RSUExampleScenario.node[72].veinsmobility acceleration ETV
vector 386 RSUExampleScenario.node[72].veinsmobility co2emission ETV
vector 387 RSUExampleScenario.node[73].veinsmobility speed ETV
vector 388 RSUExampleScenario.node[74].veinsmobility speed ETV
vector 389 RSUExampleScenario.node[75].veinsmobility speed ETV
vector 390 RSUExampleScenario.node[76].veinsmobility speed ETV
vector 391 RSUExampleScenario.node[77].veinsmobility speed ETV
vector 392 RSUExampleScenario.node[84].veinsmobility posx ETV
vector 393 RSUExampleScenario.node[84].veinsmobility posy ETV
vector 394 RSUExampleScenario.node[85].veinsmobility posx ETV
vector 395 RSUExampleScenario.node[85].veinsmobility posy ETV
vector 396 RSUExampleScenario.node[86].veinsmobility posx ETV
vector 397 RSUExampleScenario.node[86].veinsmobility posy ETV
vector 398 RSUExampleScenario.node[87].veinsmobility posx ETV
vector 399 RSUExampleScenario.node[87].veinsmobility posy ETV
vector 400 RSUExampleScenario.node[88].veinsmobility posx ETV
vector 401 RSUExampleScenario.node[88].veinsmobility posy ETV
vector 402 RSUExampleScenario.node[73].veinsmobility acceleration ETV
vector 403 RSUExampleScenario.node[73].veinsmobility co2emission ETV
vector 404 RSUExampleScenario.node[74].veinsmobility acceleration ETV
vector 405 RSUExampleScenario.node[74].veinsmobility co2emission ETV
vector 406 RSUExampleScenario.node[75].veinsmobility acceleration ETV
vector 407 RSUExampleScenario.node[75].veinsmobility co2emission ETV
vector 408 RSUExampleScenario.node[76].veinsmobility acceleration ETV
vector 409 RSUExampleScenario.node[76].veinsmobility co2emission ETV
vector 410 RSUExampleScenario.node[77].veinsmobility acceleration ETV
vector 411 RSUExampleScenario.node[77].veinsmobility co2emission ETV
vector 412 RSUExampleScenario.node[78].veinsmobility speed ETV
vector 413 RSUExampleScenario.node[79].veinsmobility speed ETV
vector 414 RSUExampleScenario.node[80].veinsmobility speed ETV
vector 415 RSUExampleScenario.node[81].veinsmobility speed ETV
vector 416 RSUExampleScenario.node[82].veinsmobility speed ETV
vector 417 RSUExampleScenario.node[83].veinsmobility speed ETV
vector 418 RSUExampleScenario.node[89].veinsmobility posx ETV
vector 419 RSUExampleScenario.node[89].veinsmobility posy ETV
vector 420 RSUExampleScenario.node[90].veinsmobility posx ETV
vector 421 RSUExampleScenario.node[90].veinsmobility posy ETV
vector 422 RSUExampleScenario.node[91].veinsmobility posx ETV
vector 423 RSUExampleScenario.node[91].veinsmobility posy ETV
vector 424 RSUExampleScenario.node[92].veinsmobility posx ETV
vector 425 RSUExampleScenario.node[92].veinsmobility posy ETV
vector 426 RSUExampleScenario.node[93].veinsmobility posx ETV
vector 427 RSUExampleScenario.node[93].veinsmobility posy ETV
vector 428 RSUExampleScenario.node[94].veinsmobility posx ETV
vector 429 RSUExampleScenario.node[94].veinsmobility posy ETV
vector 430 RSUExampleScenario.node[95].veinsmobility posx ETV
vector 431 RSUExampleScenario.node[95].veinsmobility posy ETV
vector 432 RSUExampleScenario.node[78].veinsmobility acceleration ETV
vector 433 RSUExampleScenario.node[78].veinsmobility co2emission ETV
vector 434 RSUExampleScenario.node[79].veinsmobility acceleration ETV
vector 435 RSUExampleScenario.node[79].veinsmobility co2emission ETV
vector 436 RSUExampleScenario.node[80].veinsmobility acceleration ETV
vector 437 RSUExampleScenario.node[80].veinsmobility co2emission ETV
vector 438 RSUExampleScenario.node[81].veinsmobility acceleration ETV
vector 439 RSUExampleScenario.node[81].veinsmobility co2emission ETV
vector 440 RSUExampleScenario.node[82].veinsmobility acceleration ETV
vector 441 RSUExampleScenario.node[82].veinsmobility co2emission ETV
vector 442 RSUExampleScenario.node[83].veinsmobility acceleration ETV
vector 443 RSUExampleScenario.node[83].veinsmobility co2emission ETV
vector 444 RSUExampleScenario.node[84].veinsmobility speed ETV
vector 445 RSUExampleScenario.node[85].veinsmobility speed ETV
vector 446 RSUExampleScenario.node[86].veinsmobility speed ETV
vector 447 RSUExampleScenario.node[87].veinsmobility speed ETV
vector 448 RSUExampleScenario.node[88].veinsmobility speed ETV
vector 449 RSUExampleScenario.node[96].veinsmobility posx ETV
vector 450 RSUExampleScenario.node[96].veinsmobility posy ETV
vector 451 RSUExampleScenario.node[97].veinsmobility posx ETV
vector 452 RSUExampleScenario.node[97].veinsmobility posy ETV
vector 453 RSUExampleScenario.node[98].veinsmobility posx ETV
vector 454 RSUExampleScenario.node[98].veinsmobility posy ETV
vector 455 RSUExampleScenario.node[84].veinsmobility acceleration ETV
vector 456 RSUExampleScenario.node[84].veinsmobility co2emission ETV
vector 457 RSUExampleScenario.node[85].veinsmobility acceleration ETV
vector 458 RSUExampleScenario.node[85].veinsmobility co2emission ETV
vector 459 RSUExampleScenario.node[86].veinsmobility acceleration ETV
vector 460 RSUExampleScenario.node[86].veinsmobility co2emission ETV
vector 461 RSUExampleScenario.node[87].veinsmobility acceleration ETV
vector 462 RSUExampleScenario.node[87].veinsmobility co2emission ETV
vector 463 RSUExampleScenario.node[88].veinsmobility acceleration ETV
vector 464 RSUExampleScenario.node[88].veinsmobility co2emission ETV
vector 465 RSUExampleScenario.node[89].veinsmobility speed ETV
vector 466 RSUExampleScenario.node[90].veinsmobility speed ETV
vector 467 RSUExampleScenario.node[91].veinsmobility speed ETV
vector 468 RSUExampleScenario.node[92].veinsmobility speed ETV
vector 469 RSUExampleScenario.node[93].veinsmobility speed ETV
vector 470 RSUExampleScenario.node[94].veinsmobility speed ETV
vector 471 RSUExampleScenario.node[95].veinsmobility speed ETV
vector 472 RSUExampleScenario.node[99].veinsmobility posx ETV
vector 473 RSUExampleScenario.node[99].veinsmobility posy ETV
vector 474 RSUExampleScenario.node[100].veinsmobility posx ETV
vector 475 RSUExampleScenario.node[100].veinsmobility posy ETV
vector 476 RSUExampleScenario.node[101].veinsmobility posx ETV
vector 477 RSUExampleScenario.node[101].veinsmobility posy ETV
vector 478 RSUExampleScenario.node[102].veinsmobility posx ETV
vector 479 RSUExampleScenario.node[102].veinsmobility posy ETV
vector 480 RSUExampleScenario.node[103].veinsmobility posx ETV
vector 481 RSUExampleScenario.node[103].veinsmobility posy ETV
vector 482 RSUExampleScenario.node[104].veinsmobility posx ETV
vector 483 RSUExampleScenario.node[104].veinsmobility posy ETV
vector 484 RSUExampleScenario.node[105].veinsmobility posx ETV
vector 485 RSUExampleScenario.node[105].veinsmobility posy ETV
vector 486 RSUExampleScenario.node[89].veinsmobility acceleration ETV
vector 487 RSUExampleScenario.node[89].veinsmobility co2emission ETV
vector 488 RSUExampleScenario.node[90].veinsmobility acceleration ETV
vector 489 RSUExampleScenario.node[90].veinsmobility co2emission ETV
vector 490 RSUExampleScenario.node[91].veinsmobility acceleration ETV
vector 491 RSUExampleScenario.node[91].veinsmobility co2emission ETV
vector 492 RSUExampleScenario.node[92].veinsmobility acceleration ETV
vector 493 RSUExampleScenario.node[92].veinsmobility co2emission ETV
vector 494 RSUExampleScenario.node[93].veinsmobility acceleration ETV
vector 495 RSUExampleScenario.node[93].veinsmobility co2emission ETV
vector 496 RSUExampleScenario.node[94].veinsmobility acceleration ETV
vector 497 RSUExampleScenario.node[94].veinsmobility co2emission ETV
vector 498 RSUExampleScenario.node[95].veinsmobility acceleration ETV
vector 499 RSUExampleScenario.node[95].veinsmobility co2emission ETV
vector 500 RSUExampleScenario.node[96].veinsmobility speed ETV
vector 501 RSUExampleScenario.node[97].veinsmobility speed ETV
vector 502 RSUExampleScenario.node[98].veinsmobility speed ETV
vector 503 RSUExampleScenario.node[106].veinsmobility posx ETV
vector 504 RSUExampleScenario.node[106].veinsmobility posy ETV
vector 505 RSUExampleScenario.node[107].veinsmobility posx ETV
vector 506 RSUExampleScenario.node[107].veinsmobility posy ETV
vector 507 RSUExampleScenario.node[108].veinsmobility posx ETV
vector 508 RSUExampleScenario.node[108].veinsmobility posy ETV
vector 509 RSUExampleScenario.node[109].veinsmobility posx ETV
vector 510 RSUExampleScenario.node[109].veinsmobility posy ETV
vector 511 RSUExampleScenario.node[96].veinsmobility acceleration ETV
vector 512 RSUExampleScenario.node[96].veinsmobility co2emission ETV
vector 513 RSUExampleScenario.node[97].veinsmobility acceleration ETV
vector 514 RSUExampleScenario.node[97].veinsmobility co2emission ETV
vector 515 RSUExampleScenario.node[98].veinsmobility acceleration ETV
vector 516 RSUExampleScenario.node[98].veinsmobility co2emission ETV
vector 517 RSUExampleScenario.node[99].veinsmobility speed ETV
vector 518 RSUExampleScenario.node[100].veinsmobility speed ETV
vector 519 RSUExampleScenario.node[101].veinsmobility speed ETV
vector 520 RSUExampleScenario.node[102].veinsmobility speed ETV
vector 521 RSUExampleScenario.node[103].veinsmobility speed ETV
vector 522 RSUExampleScenario.node[104].veinsmobility speed ETV
vector 523 RSUExampleScenario.node[105].veinsmobility speed ETV
vector 524 RSUExampleScenario.node[110].veinsmobility posx ETV
vector 525 RSUExampleScenario.node[110].veinsmobility posy ETV
vector 526 RSUExampleScenario.node[111].veinsmobility posx ETV
vector 527 RSUExampleScenario.node[111].veinsmobility posy ETV
vector 528 RSUExampleScenario.node[112].veinsmobility posx ETV
vector 529 RSUExampleScenario.node[112].veinsmobility posy ETV
vector 530 RSUExampleScenario.node[113].veinsmobility posx ETV
vector 531 RSUExampleScenario.node[113].veinsmobility posy ETV
vector 532 RSUExampleScenario.node[114].veinsmobility posx ETV
vector 533 RSUExampleScenario.node[114].veinsmobility posy ETV
vector 534 RSUExampleScenario.node[99].veinsmobility acceleration ETV
vector 535 RSUExampleScenario.node[99].veinsmobility co2emission ETV
vector 536 RSUExampleScenario.node[100].veinsmobility acceleration ETV
vector 537 RSUExampleScenario.node[100].veinsmobility co2emission ETV
vector 538 RSUExampleScenario.node[101].veinsmobility acceleration ETV
vector 539 RSUExampleScenario.node[101].veinsmobility co2emission ETV
vector 540 RSUExampleScenario.node[102].veinsmobility acceleration ETV
vector 541 RSUExampleScenario.node[102].veinsmobility co2emission ETV
vector 542 RSUExampleScenario.node[103].veinsmobility acceleration ETV
vector 543 RSUExampleScenario.node[103].veinsmobility co2emission ETV
vector 544 RSUExampleScenario.node[104].veinsmobility acceleration ETV
vector 545 RSUExampleScenario.node[104].veinsmobility co2emission ETV
vector 546 RSUExampleScenario.node[105].veinsmobility acceleration ETV
vector 547 RSUExampleScenario.node[105].veinsmobility co2emission ETV
vector 548 RSUExampleScenario.node[106].veinsmobility speed ETV
vector 549 RSUExampleScenario.node[107].veinsmobility speed ETV
vector 550 RSUExampleScenario.node[108].veinsmobility speed ETV
vector 551 RSUExampleScenario.node[109].veinsmobility speed ETV
vector 552 RSUExampleScenario.node[115].veinsmobility posx ETV
vector 553 RSUExampleScenario.node[115].veinsmobility posy ETV
vector 554 RSUExampleScenario.node[116].veinsmobility posx ETV
vector 555 RSUExampleScenario.node[116].veinsmobility posy ETV
vector 556 RSUExampleScenario.node[117].veinsmobility posx ETV
vector 557 RSUExampleScenario.node[117].veinsmobility posy ETV
vector 558 RSUExampleScenario.node[106].veinsmobility acceleration ETV
vector 559 RSUExampleScenario.node[106].veinsmobility co2emission ETV
vector 560 RSUExampleScenario.node[107].veinsmobility acceleration ETV
vector 561 RSUExampleScenario.node[107].veinsmobility co2emission ETV
vector 562 RSUExampleScenario.node[108].veinsmobility acceleration ETV
vector 563 RSUExampleScenario.node[108].veinsmobility co2emission ETV
vector 564 RSUExampleScenario.node[109].veinsmobility acceleration ETV
vector 565 RSUExampleScenario.node[109].veinsmobility co2emission ETV
vector 566 RSUExampleScenario.node[110].veinsmobility speed ETV
vector 567 RSUExampleScenario.node[111].veinsmobility speed ETV
vector 568 RSUExampleScenario.node[112].veinsmobility speed ETV
vector 569 RSUExampleScenario.node[113].veinsmobility speed ETV
vector 570 RSUExampleScenario.node[114].veinsmobility speed ETV
vector 571 RSUExampleScenario.node[118].veinsmobility posx ETV
vector 572 RSUExampleScenario.node[118].veinsmobility posy ETV
vector 573 RSUExampleScenario.node[119].veinsmobility posx ETV
vector 574 RSUExampleScenario.node[119].veinsmobility posy ETV
vector 575 RSUExampleScenario.node[120].veinsmobility posx ETV
vector 576 RSUExampleScenario.node[120].veinsmobility posy ETV
vector 577 RSUExampleScenario.node[121].veinsmobility posx ETV
vector 578 RSUExampleScenario.node[121].veinsmobility posy ETV
vector 579 RSUExampleScenario.node[122].veinsmobility posx ETV
vector 580 RSUExampleScenario.node[122].veinsmobility posy ETV
vector 581 RSUExampleScenario.node[123].veinsmobility posx ETV
vector 582 RSUExampleScenario.node[123].veinsmobility posy ETV
vector 583 RSUExampleScenario.node[124].veinsmobility posx ETV
vector 584 RSUExampleScenario.node[124].veinsmobility posy ETV
vector 585 RSUExampleScenario.node[110].veinsmobility acceleration ETV
vector 586 RSUExampleScenario.node[110].veinsmobility co2emission ETV
vector 587 RSUExampleScenario.node[111].veinsmobility acceleration ETV
vector 588 RSUExampleScenario.node[111].veinsmobility co2emission ETV
vector 589 RSUExampleScenario.node[112].veinsmobility acceleration ETV
vector 590 RSUExampleScenario.node[112].veinsmobility co2emission ETV
vector 591 RSUExampleScenario.node[113].veinsmobility acceleration ETV
vector 592 RSUExampleScenario.node[113].veinsmobility co2emission ETV
vector 593 RSUExampleScenario.node[114].veinsmobility acceleration ETV
vector 594 RSUExampleScenario.node[114].veinsmobility co2emission ETV
vector 595 RSUExampleScenario.node[115].veinsmobility speed ETV
vector 596 RSUExampleScenario.node[116].veinsmobility speed ETV
vector 597 RSUExampleScenario.node[117].veinsmobility speed ETV
vector 598 RSUExampleScenario.node[125].veinsmobility posx ETV
vector 599 RSUExampleScenario.node[125].veinsmobility posy ETV
vector 600 RSUExampleScenario.node[126].veinsmobility posx ETV
vector 601 RSUExampleScenario.node[126].veinsmobility posy ETV
vector 602 RSUExampleScenario.node[127].veinsmobility posx ETV
vector 603 RSUExampleScenario.node[127].veinsmobility posy ETV
vector 604 RSUExampleScenario.node[128].veinsmobility posx ETV
vector 605 RSUExampleScenario.node[128].veinsmobility posy ETV
vector 606 RSUExampleScenario.node[115].veinsmobility acceleration ETV
vector 607 RSUExampleScenario.node[115].veinsmobility co2emission ETV
vector 608 RSUExampleScenario.node[116].veinsmobility acceleration ETV
vector 609 RSUExampleScenario.node[116].veinsmobility co2emission ETV
vector 610 RSUExampleScenario.node[117].veinsmobility acceleration ETV
vector 611 RSUExampleScenario.node[117].veinsmobility co2emission ETV
vector 612 RSUExampleScenario.node[118].veinsmobility speed ETV
vector 613 RSUExampleScenario.node[119].veinsmobility speed ETV
vector 614 RSUExampleScenario.node[120].veinsmobility speed ETV
vector 615 RSUExampleScenario.node[121].veinsmobility speed ETV
vector 616 RSUExampleScenario.node[122].veinsmobility speed ETV
vector 617 RSUExampleScenario.node[123].veinsmobility speed ETV
vector 618 RSUExampleScenario.node[124].veinsmobility speed ETV
vector 619 RSUExampleScenario.node[129].veinsmobility posx ETV
vector 620 RSUExampleScenario.node[129].veinsmobility posy ETV
vector 621 RSUExampleScenario.node[130].veinsmobility posx ETV
vector 622 RSUExampleScenario.node[130].veinsmobility posy ETV
vector 623 RSUExampleScenario.node[131].veinsmobility posx ETV
vector 624 RSUExampleScenario.node[131].veinsmobility posy ETV
vector 625 RSUExampleScenario.node[132].veinsmobility posx ETV
vector 626 RSUExampleScenario.node[132].veinsmobility posy ETV
vector 627 RSUExampleScenario.node[133].veinsmobility posx ETV
vector 628 RSUExampleScenario.node[133].veinsmobility posy ETV
vector 629 RSUExampleScenario.node[134].veinsmobility posx ETV
vector 630 RSUExampleScenario.node[134].veinsmobility posy ETV
vector 631 RSUExampleScenario.node[118].veinsmobility acceleration ETV
vector 632 RSUExampleScenario.node[118].veinsmobility co2emission ETV
vector 633 RSUExampleScenario.node[119].veinsmobility acceleration ETV
vector 634 RSUExampleScenario.node[119].veinsmobility co2emission ETV
vector 635 RSUExampleScenario.node[120].veinsmobility acceleration ETV
vector 636 RSUExampleScenario.node[120].veinsmobility co2emission ETV
vector 637 RSUExampleScenario.node[121].veinsmobility acceleration ETV
vector 638 RSUExampleScenario.node[121].veinsmobility co2emission ETV
vector 639 RSUExampleScenario.node[122].veinsmobility acceleration ETV
vector 640 RSUExampleScenario.node[122].veinsmobility co2emission ETV
vector 641 RSUExampleScenario.node[123].veinsmobility acceleration ETV
vector 642 RSUExampleScenario.node[123].veinsmobility co2emission ETV
vector 643 RSUExampleScenario.node[124].veinsmobility acceleration ETV
vector 644 RSUExampleScenario.node[124].veinsmobility co2emission ETV
vector 645 RSUExampleScenario.node[125].veinsmobility speed ETV
vector 646 RSUExampleScenario.node[126].veinsmobility speed ETV
vector 647 RSUExampleScenario.node[127].veinsmobility speed ETV
vector 648 RSUExampleScenario.node[128].veinsmobility speed ETV
vector 649 RSUExampleScenario.node[135].veinsmobility posx ETV
vector 650 RSUExampleScenario.node[135].veinsmobility posy ETV
vector 651 RSUExampleScenario.node[136].veinsmobility posx ETV
vector 652 RSUExampleScenario.node[136].veinsmobility posy ETV
vector 653 RSUExampleScenario.node[137].veinsmobility posx ETV
vector 654 RSUExampleScenario.node[137].veinsmobility posy ETV
vector 655 RSUExampleScenario.node[138].veinsmobility posx ETV
vector 656 RSUExampleScenario.node[138].veinsmobility posy ETV
vector 657 RSUExampleScenario.node[125].veinsmobility acceleration ETV
vector 658 RSUExampleScenario.node[125].veinsmobility co2emission ETV
vector 659 RSUExampleScenario.node[126].veinsmobility acceleration ETV
vector 660 RSUExampleScenario.node[126].veinsmobility co2emission ETV
vector 661 RSUExampleScenario.node[127].veinsmobility acceleration ETV
vector 662 RSUExampleScenario.node[127].veinsmobility co2emission ETV
vector 663 RSUExampleScenario.node[128].veinsmobility acceleration ETV
vector 664 RSUExampleScenario.node[128].veinsmobility co2emission ETV
vector 665 RSUExampleScenario.node[129].veinsmobility speed ETV
vector 666 RSUExampleScenario.node[130].veinsmobility speed ETV
vector 667 RSUExampleScenario.node[131].veinsmobility speed ETV
vector 668 RSUExampleScenario.node[132].veinsmobility speed ETV
vector 669 RSUExampleScenario.node[133].veinsmobility speed ETV
vector 670 RSUExampleScenario.node[134].veinsmobility speed ETV
vector 671 RSUExampleScenario.node[139].veinsmobility posx ETV
vector 672 RSUExampleScenario.node[139].veinsmobility posy ETV
vector 673 RSUExampleScenario.node[140].veinsmobility posx ETV
vector 674 RSUExampleScenario.node[140].veinsmobility posy ETV
vector 675 RSUExampleScenario.node[141].veinsmobility posx ETV
vector 676 RSUExampleScenario.node[141].veinsmobility posy ETV
vector 677 RSUExampleScenario.node[142].veinsmobility posx ETV
vector 678 RSUExampleScenario.node[142].veinsmobility posy ETV
vector 679 RSUExampleScenario.node[129].veinsmobility acceleration ETV
vector 680 RSUExampleScenario.node[129].veinsmobility co2emission ETV
vector 681 RSUExampleScenario.node[130].veinsmobility acceleration ETV
vector 682 RSUExampleScenario.node[130].veinsmobility co2emission ETV
vector 683 RSUExampleScenario.node[131].veinsmobility acceleration ETV
vector 684 RSUExampleScenario.node[131].veinsmobility co2emission ETV
vector 685 RSUExampleScenario.node[132].veinsmobility acceleration ETV
vector 686 RSUExampleScenario.node[132].veinsmobility co2emission ETV
vector 687 RSUExampleScenario.node[133].veinsmobility acceleration ETV
vector 688 RSUExampleScenario.node[133].veinsmobility co2emission ETV
vector 689 RSUExampleScenario.node[134].veinsmobility acceleration ETV
vector 690 RSUExampleScenario.node[134].veinsmobility co2emission ETV
vector 691 RSUExampleScenario.node[135].veinsmobility speed ETV
vector 692 RSUExampleScenario.node[136].veinsmobility speed ETV
vector 693 RSUExampleScenario.node[137].veinsmobility speed ETV
vector 694 RSUExampleScenario.node[138].veinsmobility speed ETV
vector 695 RSUExampleScenario.node[143].veinsmobility posx ETV
vector 696 RSUExampleScenario.node[143].veinsmobility posy ETV
vector 697 RSUExampleScenario.node[144].veinsmobility posx ETV
vector 698 RSUExampleScenario.node[144].veinsmobility posy ETV
vector 699 RSUExampleScenario.node[145].veinsmobility posx ETV
vector 700 RSUExampleScenario.node[145].veinsmobility posy ETV
vector 701 RSUExampleScenario.node[146].veinsmobility posx ETV
vector 702 RSUExampleScenario.node[146].veinsmobility posy ETV
vector 703 RSUExampleScenario.node[147].veinsmobility posx ETV
vector 704 RSUExampleScenario.node[147].veinsmobility posy ETV
vector 705 RSUExampleScenario.node[148].veinsmobility posx ETV
vector 706 RSUExampleScenario.node[148].veinsmobility posy ETV
vector 707 RSUExampleScenario.node[149].veinsmobility posx ETV
vector 708 RSUExampleScenario.node[149].veinsmobility posy ETV
vector 709 RSUExampleScenario.node[135].veinsmobility acceleration ETV
vector 710 RSUExampleScenario.node[135].veinsmobility co2emission ETV
vector 711 RSUExampleScenario.node[136].veinsmobility acceleration ETV
vector 712 RSUExampleScenario.node[136].veinsmobility co2emission ETV
vector 713 RSUExampleScenario.node[137].veinsmobility acceleration ETV
vector 714 RSUExampleScenario.node[137].veinsmobility co2emission ETV
vector 715 RSUExampleScenario.node[138].veinsmobility acceleration ETV
vector 716 RSUExampleScenario.node[138].veinsmobility co2emission ETV
vector 717 RSUExampleScenario.node[139].veinsmobility speed ETV
vector 718 RSUExampleScenario.node[140].veinsmobility speed ETV
vector 719 RSUExampleScenario.node[141].veinsmobility speed ETV
vector 720 RSUExampleScenario.node[142].veinsmobility speed ETV
vector 721 RSUExampleScenario.node[150].veinsmobility posx ETV
vector 722 RSUExampleScenario.node[150].veinsmobility posy ETV
vector 723 RSUExampleScenario.node[151].veinsmobility posx ETV
vector 724 RSUExampleScenario.node[151].veinsmobility posy ETV
vector 725 RSUExampleScenario.node[152].veinsmobility posx ETV
vector 726 RSUExampleScenario.node[152].veinsmobility posy ETV
vector 727 RSUExampleScenario.node[153].veinsmobility posx ETV
vector 728 RSUExampleScenario.node[153].veinsmobility posy ETV
vector 729 RSUExampleScenario.node[154].veinsmobility posx ETV
vector 730 RSUExampleScenario.node[154].veinsmobility posy ETV
vector 731 RSUExampleScenario.node[139].veinsmobility acceleration ETV
vector 732 RSUExampleScenario.node[139].veinsmobility co2emission ETV
vector 733 RSUExampleScenario.node[140].veinsmobility acceleration ETV
vector 734 RSUExampleScenario.node[140].veinsmobility co2emission ETV
vector 735 RSUExampleScenario.node[141].veinsmobility acceleration ETV
vector 736 RSUExampleScenario.node[141].veinsmobility co2emission ETV
vector 737 RSUExampleScenario.node[142].veinsmobility acceleration ETV
vector 738 RSUExampleScenario.node[142].veinsmobility co2emission ETV
vector 739 RSUExampleScenario.node[143].veinsmobility speed ETV
vector 740 RSUExampleScenario.node[144].veinsmobility speed ETV
vector 741 RSUExampleScenario.node[145].veinsmobility speed ETV
vector 742 RSUExampleScenario.node[146].veinsmobility speed ETV
vector 743 RSUExampleScenario.node[147].veinsmobility speed ETV
vector 744 RSUExampleScenario.node[148].veinsmobility speed ETV
vector 745 RSUExampleScenario.node[149].veinsmobility speed ETV
vector 746 RSUExampleScenario.node[155].veinsmobility posx ETV
vector 747 RSUExampleScenario.node[155].veinsmobility posy ETV
vector 748 RSUExampleScenario.node[156].veinsmobility posx ETV
vector 749 RSUExampleScenario.node[156].veinsmobility posy ETV
vector 750 RSUExampleScenario.node[157].veinsmobility posx ETV
vector 751 RSUExampleScenario.node[157].veinsmobility posy ETV
vector 752 RSUExampleScenario.node[158].veinsmobility posx ETV
vector 753 RSUExampleScenario.node[158].veinsmobility posy ETV
vector 754 RSUExampleScenario.node[143].veinsmobility acceleration ETV
vector 755 RSUExampleScenario.node[143].veinsmobility co2emission ETV
vector 756 RSUExampleScenario.node[144].veinsmobility acceleration ETV
vector 757 RSUExampleScenario.node[144].veinsmobility co2emission ETV
vector 758 RSUExampleScenario.node[145].veinsmobility acceleration ETV
vector 759 RSUExampleScenario.node[145].veinsmobility co2emission ETV
vector 760 RSUExampleScenario.node[146].veinsmobility acceleration ETV
vector 761 RSUExampleScenario.node[146].veinsmobility co2emission ETV
vector 762 RSUExampleScenario.node[147].veinsmobility acceleration ETV
vector 763 RSUExampleScenario.node[147].veinsmobility co2emission ETV
vector 764 RSUExampleScenario.node[148].veinsmobility acceleration ETV
vector 765 RSUExampleScenario.node[148].veinsmobility co2emission ETV
vector 766 RSUExampleScenario.node[149].veinsmobility acceleration ETV
vector 767 RSUExampleScenario.node[149].veinsmobility co2emission ETV
vector 768 RSUExampleScenario.node[150].veinsmobility speed ETV
vector 769 RSUExampleScenario.node[151].veinsmobility speed ETV
vector 770 RSUExampleScenario.node[152].veinsmobility speed ETV
vector 771 RSUExampleScenario.node[153].veinsmobility speed ETV
vector 772 RSUExampleScenario.node[154].veinsmobility speed ETV
vector 773 RSUExampleScenario.node[159].veinsmobility posx ETV
vector 774 RSUExampleScenario.node[159].veinsmobility posy ETV
vector 775 RSUExampleScenario.node[160].veinsmobility posx ETV
vector 776 RSUExampleScenario.node[160].veinsmobility posy ETV
vector 777 RSUExampleScenario.node[161].veinsmobility posx ETV
vector 778 RSUExampleScenario.node[161].veinsmobility posy ETV
vector 779 RSUExampleScenario.node[162].veinsmobility posx ETV
vector 780 RSUExampleScenario.node[162].veinsmobility posy ETV
vector 781 RSUExampleScenario.node[150].veinsmobility acceleration ETV
vector 782 RSUExampleScenario.node[150].veinsmobility co2emission ETV
vector 783 RSUExampleScenario.node[151].veinsmobility acceleration ETV
vector 784 RSUExampleScenario.node[151].veinsmobility co2emission ETV
vector 785 RSUExampleScenario.node[152].veinsmobility acceleration ETV
vector 786 RSUExampleScenario.node[152].veinsmobility co2emission ETV
vector 787 RSUExampleScenario.node[153].veinsmobility acceleration ETV
vector 788 RSUExampleScenario.node[153].veinsmobility co2emission ETV
vector 789 RSUExampleScenario.node[154].veinsmobility acceleration ETV
vector 790 RSUExampleScenario.node[154].veinsmobility co2emission ETV
vector 791 RSUExampleScenario.node[155].veinsmobility speed ETV
vector 792 RSUExampleScenario.node[156].veinsmobility speed ETV
vector 793 RSUExampleScenario.node[157].veinsmobility speed ETV
vector 794 RSUExampleScenario.node[158].veinsmobility speed ETV
vector 795 RSUExampleScenario.node[163].veinsmobility posx ETV
vector 796 RSUExampleScenario.node[163].veinsmobility posy ETV
vector 797 RSUExampleScenario.node[164].veinsmobility posx ETV
vector 798 RSUExampleScenario.node[164].veinsmobility posy ETV
vector 799 RSUExampleScenario.node[165].veinsmobility posx ETV
vector 800 RSUExampleScenario.node[165].veinsmobility posy ETV
vector 801 RSUExampleScenario.node[166].veinsmobility posx ETV
vector 802 RSUExampleScenario.node[166].veinsmobility posy ETV
vector 803 RSUExampleScenario.node[167].veinsmobility posx ETV
vector 804 RSUExampleScenario.node[167].veinsmobility posy ETV
vector 805 RSUExampleScenario.node[155].veinsmobility acceleration ETV
vector 806 RSUExampleScenario.node[155].veinsmobility co2emission ETV
vector 807 RSUExampleScenario.node[156].veinsmobility acceleration ETV
vector 808 RSUExampleScenario.node[156].veinsmobility co2emission ETV
vector 809 RSUExampleScenario.node[157].veinsmobility acceleration ETV
vector 810 RSUExampleScenario.node[157].veinsmobility co2emission ETV
vector 811 RSUExampleScenario.node[158].veinsmobility acceleration ETV
vector 812 RSUExampleScenario.node[158].veinsmobility co2emission ETV
vector 813 RSUExampleScenario.node[159].veinsmobility speed ETV
vector 814 RSUExampleScenario.node[160].veinsmobility speed ETV
vector 815 RSUExampleScenario.node[161].veinsmobility speed ETV
vector 816 RSUExampleScenario.node[162].veinsmobility speed ETV
vector 817 RSUExampleScenario.node[168].veinsmobility posx ETV
vector 818 RSUExampleScenario.node[168].veinsmobility posy ETV
vector 819 RSUExampleScenario.node[169].veinsmobility posx ETV
vector 820 RSUExampleScenario.node[169].veinsmobility posy ETV
vector 821 RSUExampleScenario.node[170].veinsmobility posx ETV
vector 822 RSUExampleScenario.node[170].veinsmobility posy ETV
vector 823 RSUExampleScenario.node[171].veinsmobility posx ETV
vector 824 RSUExampleScenario.node[171].veinsmobility posy ETV
vector 825 RSUExampleScenario.node[159].veinsmobility acceleration ETV
vector 826 RSUExampleScenario.node[159].veinsmobility co2emission ETV
vector 827 RSUExampleScenario.node[160].veinsmobility acceleration ETV
vector 828 RSUExampleScenario.node[160].veinsmobility co2emission ETV
vector 829 RSUExampleScenario.node[161].veinsmobility acceleration ETV
vector 830 RSUExampleScenario.node[161].veinsmobility co2emission ETV
vector 831 RSUExampleScenario.node[162].veinsmobility acceleration ETV
vector 832 RSUExampleScenario.node[162].veinsmobility co2emission ETV
vector 833 RSUExampleScenario.node[163].veinsmobility speed ETV
vector 834 RSUExampleScenario.node[164].veinsmobility speed ETV
vector 835 RSUExampleScenario.node[165].veinsmobility speed ETV
vector 836 RSUExampleScenario.node[166].veinsmobility speed ETV
vector 837 RSUExampleScenario.node[167].veinsmobility speed ETV
vector 838 RSUExampleScenario.node[172].veinsmobility posx ETV
vector 839 RSUExampleScenario.node[172].veinsmobility posy ETV
vector 840 RSUExampleScenario.node[173].veinsmobility posx ETV
vector 841 RSUExampleScenario.node[173].veinsmobility posy ETV
vector 842 RSUExampleScenario.node[174].veinsmobility posx ETV
vector 843 RSUExampleScenario.node[174].veinsmobility posy ETV
vector 844 RSUExampleScenario.node[175].veinsmobility posx ETV
vector 845 RSUExampleScenario.node[175].veinsmobility posy ETV
vector 846 RSUExampleScenario.node[176].veinsmobility posx ETV
vector 847 RSUExampleScenario.node[176].veinsmobility posy ETV
vector 848 RSUExampleScenario.node[163].veinsmobility acceleration ETV
vector 849 RSUExampleScenario.node[163].veinsmobility co2emission ETV
vector 850 RSUExampleScenario.node[164].veinsmobility acceleration ETV
vector 851 RSUExampleScenario.node[164].veinsmobility co2emission ETV
vector 852 RSUExampleScenario.node[165].veinsmobility acceleration ETV
vector 853 RSUExampleScenario.node[165].veinsmobility co2emission ETV
vector 854 RSUExampleScenario.node[166].veinsmobility acceleration ETV
vector 855 RSUExampleScenario.node[166].veinsmobility co2emission ETV
vector 856 RSUExampleScenario.node[167].veinsmobility acceleration ETV
vector 857 RSUExampleScenario.node[167].veinsmobility co2emission ETV
vector 858 RSUExampleScenario.node[168].veinsmobility speed ETV
vector 859 RSUExampleScenario.node[169].veinsmobility speed ETV
vector 860 RSUExampleScenario.node[170].veinsmobility speed ETV
vector 861 RSUExampleScenario.node[171].veinsmobility speed ETV
vector 862 RSUExampleScenario.node[177].veinsmobility posx ETV
vector 863 RSUExampleScenario.node[177].veinsmobility posy ETV
vector 864 RSUExampleScenario.node[178].veinsmobility posx ETV
vector 865 RSUExampleScenario.node[178].veinsmobility posy ETV
vector 866 RSUExampleScenario.node[179].veinsmobility posx ETV
vector 867 RSUExampleScenario.node[179].veinsmobility posy ETV
vector 868 RSUExampleScenario.node[180].veinsmobility posx ETV
vector 869 RSUExampleScenario.node[180].veinsmobility posy ETV
vector 870 RSUExampleScenario.node[168].veinsmobility acceleration ETV
vector 871 RSUExampleScenario.node[168].veinsmobility co2emission ETV
vector 872 RSUExampleScenario.node[169].veinsmobility acceleration ETV
vector 873 RSUExampleScenario.node[169].veinsmobility co2emission ETV
vector 874 RSUExampleScenario.node[170].veinsmobility acceleration ETV
vector 875 RSUExampleScenario.node[170].veinsmobility co2emission ETV
vector 876 RSUExampleScenario.node[171].veinsmobility acceleration ETV
vector 877 RSUExampleScenario.node[171].veinsmobility co2emission ETV
vector 878 RSUExampleScenario.node[172].veinsmobility speed ETV
vector 879 RSUExampleScenario.node[173].veinsmobility speed ETV
vector 880 RSUExampleScenario.node[174].veinsmobility speed ETV
vector 881 RSUExampleScenario.node[175].veinsmobility speed ETV
vector 882 RSUExampleScenario.node[176].veinsmobility speed ETV
vector 883 RSUExampleScenario.node[181].veinsmobility posx ETV
vector 884 RSUExampleScenario.node[181].veinsmobility posy ETV
vector 885 RSUExampleScenario.node[182].veinsmobility posx ETV
vector 886 RSUExampleScenario.node[182].veinsmobility posy ETV
vector 887 RSUExampleScenario.node[183].veinsmobility posx ETV
vector 888 RSUExampleScenario.node[183].veinsmobility posy ETV
vector 889 RSUExampleScenario.node[184].veinsmobility posx ETV
vector 890 RSUExampleScenario.node[184].veinsmobility posy ETV
vector 891 RSUExampleScenario.node[185].veinsmobility posx ETV
vector 892 RSUExampleScenario.node[185].veinsmobility posy ETV
vector 893 RSUExampleScenario.node[186].veinsmobility posx ETV
vector 894 RSUExampleScenario.node[186].veinsmobility posy ETV
vector 895 RSUExampleScenario.node[172].veinsmobility acceleration ETV
vector 896 RSUExampleScenario.node[172].veinsmobility co2emission ETV
vector 897 RSUExampleScenario.node[173].veinsmobility acceleration ETV
vector 898 RSUExampleScenario.node[173].veinsmobility co2emission ETV
vector 899 RSUExampleScenario.node[174].veinsmobility acceleration ETV
vector 900 RSUExampleScenario.node[174].veinsmobility co2emission ETV
vector 901 RSUExampleScenario.node[175].veinsmobility acceleration ETV
vector 902 RSUExampleScenario.node[175].veinsmobility co2emission ETV
vector 903 RSUExampleScenario.node[176].veinsmobility acceleration ETV
vector 904 RSUExampleScenario.node[176].veinsmobility co2emission ETV
vector 905 RSUExampleScenario.node[177].veinsmobility speed ETV
vector 906 RSUExampleScenario.node[178].veinsmobility speed ETV
vector 907 RSUExampleScenario.node[179].veinsmobility speed ETV
vector 908 RSUExampleScenario.node[180].veinsmobility speed ETV
vector 909 RSUExampleScenario.node[187].veinsmobility posx ETV
vector 910 RSUExampleScenario.node[187].veinsmobility posy ETV
vector 911 RSUExampleScenario.node[188].veinsmobility posx ETV
vector 912 RSUExampleScenario.node[188].veinsmobility posy ETV
vector 913 RSUExampleScenario.node[189].veinsmobility posx ETV
vector 914 RSUExampleScenario.node[189].veinsmobility posy ETV
vector 915 RSUExampleScenario.node[190].veinsmobility posx ETV
vector 916 RSUExampleScenario.node[190].veinsmobility posy ETV
vector 917 RSUExampleScenario.node[191].veinsmobility posx ETV
vector 918 RSUExampleScenario.node[191].veinsmobility posy ETV
vector 919 RSUExampleScenario.node[177].veinsmobility acceleration ETV
vector 920 RSUExampleScenario.node[177].veinsmobility co2emission ETV
vector 921 RSUExampleScenario.node[178].veinsmobility acceleration ETV
vector 922 RSUExampleScenario.node[178].veinsmobility co2emission ETV
vector 923 RSUExampleScenario.node[179].veinsmobility acceleration ETV
vector 924 RSUExampleScenario.node[179].veinsmobility co2emission ETV
vector 925 RSUExampleScenario.node[180].veinsmobility acceleration ETV
vector 926 RSUExampleScenario.node[180].veinsmobility co2emission ETV
vector 927 RSUExampleScenario.node[181].veinsmobility speed ETV
vector 928 RSUExampleScenario.node[182].veinsmobility speed ETV
vector 929 RSUExampleScenario.node[183].veinsmobility speed ETV
vector 930 RSUExampleScenario.node[184].veinsmobility speed ETV
vector 931 RSUExampleScenario.node[185].veinsmobility speed ETV
vector 932 RSUExampleScenario.node[186].veinsmobility speed ETV
vector 933 RSUExampleScenario.node[192].veinsmobility posx ETV
vector 934 RSUExampleScenario.node[192].veinsmobility posy ETV
vector 935 RSUExampleScenario.node[193].veinsmobility posx ETV
vector 936 RSUExampleScenario.node[193].veinsmobility posy ETV
vector 937 RSUExampleScenario.node[194].veinsmobility posx ETV
vector 938 RSUExampleScenario.node[194].veinsmobility posy ETV
vector 939 RSUExampleScenario.node[181].veinsmobility acceleration ETV
vector 940 RSUExampleScenario.node[181].veinsmobility co2emission ETV
vector 941 RSUExampleScenario.node[182].veinsmobility acceleration ETV
vector 942 RSUExampleScenario.node[182].veinsmobility co2emission ETV
vector 943 RSUExampleScenario.node[183].veinsmobility acceleration ETV
vector 944 RSUExampleScenario.node[183].veinsmobility co2emission ETV
vector 945 RSUExampleScenario.node[184].veinsmobility acceleration ETV
vector 946 RSUExampleScenario.node[184].veinsmobility co2emission ETV
vector 947 RSUExampleScenario.node[185].veinsmobility acceleration ETV
vector 948 RSUExampleScenario.node[185].veinsmobility co2emission ETV
vector 949 RSUExampleScenario.node[186].veinsmobility acceleration ETV
vector 950 RSUExampleScenario.node[186].veinsmobility co2emission ETV
vector 951 RSUExampleScenario.node[187].veinsmobility speed ETV
vector 952 RSUExampleScenario.node[188].veinsmobility speed ETV
vector 953 RSUExampleScenario.node[189].veinsmobility speed ETV
vector 954 RSUExampleScenario.node[190].veinsmobility speed ETV
vector 955 RSUExampleScenario.node[191].veinsmobility speed ETV
vector 956 RSUExampleScenario.node[195].veinsmobility posx ETV
vector 957 RSUExampleScenario.node[195].veinsmobility posy ETV
vector 958 RSUExampleScenario.node[196].veinsmobility posx ETV
vector 959 RSUExampleScenario.node[196].veinsmobility posy ETV
vector 960 RSUExampleScenario.node[197].veinsmobility posx ETV
vector 961 RSUExampleScenario.node[197].veinsmobility posy ETV
vector 962 RSUExampleScenario.node[198].veinsmobility posx ETV
vector 963 RSUExampleScenario.node[198].veinsmobility posy ETV
vector 964 RSUExampleScenario.node[199].veinsmobility posx ETV
vector 965 RSUExampleScenario.node[199].veinsmobility posy ETV
vector 966 RSUExampleScenario.node[200].veinsmobility posx ETV
vector 967 RSUExampleScenario.node[200].veinsmobility posy ETV
vector 968 RSUExampleScenario.node[201].veinsmobility posx ETV
vector 969 RSUExampleScenario.node[201].veinsmobility posy ETV
vector 970 RSUExampleScenario.node[187].veinsmobility acceleration ETV
vector 971 RSUExampleScenario.node[187].veinsmobility co2emission ETV
vector 972 RSUExampleScenario.node[188].veinsmobility acceleration ETV
vector 973 RSUExampleScenario.node[188].veinsmobility co2emission ETV
vector 974 RSUExampleScenario.node[189].veinsmobility acceleration ETV
vector 975 RSUExampleScenario.node[189].veinsmobility co2emission ETV
vector 976 RSUExampleScenario.node[190].veinsmobility acceleration ETV
vector 977 RSUExampleScenario.node[190].veinsmobility co2emission ETV
vector 978 RSUExampleScenario.node[191].veinsmobility acceleration ETV
vector 979 RSUExampleScenario.node[191].veinsmobility co2emission ETV
vector 980 RSUExampleScenario.node[192].veinsmobility speed ETV
vector 981 RSUExampleScenario.node[193].veinsmobility speed ETV
vector 982 RSUExampleScenario.node[194].veinsmobility speed ETV
vector 983 RSUExampleScenario.node[202].veinsmobility posx ETV
vector 984 RSUExampleScenario.node[202].veinsmobility posy ETV
vector 985 RSUExampleScenario.node[203].veinsmobility posx ETV
vector 986 RSUExampleScenario.node[203].veinsmobility posy ETV
vector 987 RSUExampleScenario.node[204].veinsmobility posx ETV
vector 988 RSUExampleScenario.node[204].veinsmobility posy ETV
vector 989 RSUExampleScenario.node[192].veinsmobility acceleration ETV
vector 990 RSUExampleScenario.node[192].veinsmobility co2emission ETV
vector 991 RSUExampleScenario.node[193].veinsmobility acceleration ETV
vector 992 RSUExampleScenario.node[193].veinsmobility co2emission ETV
vector 993 RSUExampleScenario.node[194].veinsmobility acceleration ETV
vector 994 RSUExampleScenario.node[194].veinsmobility co2emission ETV
vector 995 RSUExampleScenario.node[195].veinsmobility speed ETV
vector 996 RSUExampleScenario.node[196].veinsmobility speed ETV
vector 997 RSUExampleScenario.node[197].veinsmobility speed ETV
vector 998 RSUExampleScenario.node[198].veinsmobility speed ETV
vector 999 RSUExampleScenario.node[199].veinsmobility speed ETV
vector 1000 RSUExampleScenario.node[200].veinsmobility speed ETV
vector 1001 RSUExampleScenario.node[201].veinsmobility speed ETV
vector 1002 RSUExampleScenario.node[205].veinsmobility posx ETV
vector 1003 RSUExampleScenario.node[205].veinsmobility posy ETV
vector 1004 RSUExampleScenario.node[206].veinsmobility posx ETV
vector 1005 RSUExampleScenario.node[206].veinsmobility posy ETV
vector 1006 RSUExampleScenario.node[207].veinsmobility posx ETV
vector 1007 RSUExampleScenario.node[207].veinsmobility posy ETV
vector 1008 RSUExampleScenario.node[195].veinsmobility acceleration ETV
vector 1009 RSUExampleScenario.node[195].veinsmobility co2emission ETV
vector 1010 RSUExampleScenario.node[196].veinsmobility acceleration ETV
vector 1011 RSUExampleScenario.node[196].veinsmobility co2emission ETV
vector 1012 RSUExampleScenario.node[197].veinsmobility acceleration ETV
vector 1013 RSUExampleScenario.node[197].veinsmobility co2emission ETV
vector 1014 RSUExampleScenario.node[198].veinsmobility acceleration ETV
vector 1015 RSUExampleScenario.node[198].veinsmobility co2emission ETV
vector 1016 RSUExampleScenario.node[199].veinsmobility acceleration ETV
vector 1017 RSUExampleScenario.node[199].veinsmobility co2emission ETV
vector 1018 RSUExampleScenario.node[200].veinsmobility acceleration ETV
vector 1019 RSUExampleScenario.node[200].veinsmobility co2emission ETV
vector 1020 RSUExampleScenario.node[201].veinsmobility acceleration ETV
vector 1021 RSUExampleScenario.node[201].veinsmobility co2emission ETV
vector 1022 RSUExampleScenario.node[202].veinsmobility speed ETV
vector 1023 RSUExampleScenario.node[203].veinsmobility speed ETV
vector 1024 RSUExampleScenario.node[204].veinsmobility speed ETV
vector 1025 RSUExampleScenario.node[208].veinsmobility posx ETV
vector 1026 RSUExampleScenario.node[208].veinsmobility posy ETV
vector 1027 RSUExampleScenario.node[209].veinsmobility posx ETV
vector 1028 RSUExampleScenario.node[209].veinsmobility posy ETV
vector 1029 RSUExampleScenario.node[210].veinsmobility posx ETV
vector 1030 RSUExampleScenario.node[210].veinsmobility posy ETV
vector 1031 RSUExampleScenario.node[211].veinsmobility posx ETV
vector 1032 RSUExampleScenario.node[211].veinsmobility posy ETV
vector 1033 RSUExampleScenario.node[202].veinsmobility acceleration ETV
vector 1034 RSUExampleScenario.node[202].veinsmobility co2emission ETV
vector 1035 RSUExampleScenario.node[203].veinsmobility acceleration ETV
vector 1036 RSUExampleScenario.node[203].veinsmobility co2emission ETV
vector 1037 RSUExampleScenario.node[204].veinsmobility acceleration ETV
vector 1038 RSUExampleScenario.node[204].veinsmobility co2emission ETV
vector 1039 RSUExampleScenario.node[205].veinsmobility speed ETV
vector 1040 RSUExampleScenario.node[206].veinsmobility speed ETV
vector 1041 RSUExampleScenario.node[207].veinsmobility speed ETV
vector 1042 RSUExampleScenario.node[212].veinsmobility posx ETV
vector 1043 RSUExampleScenario.node[212].veinsmobility posy ETV
vector 1044 RSUExampleScenario.node[213].veinsmobility posx ETV
vector 1045 RSUExampleScenario.node[213].veinsmobility posy ETV
vector 1046 RSUExampleScenario.node[214].veinsmobility posx ETV
vector 1047 RSUExampleScenario.node[214].veinsmobility posy ETV
vector 1048 RSUExampleScenario.node[215].veinsmobility posx ETV
vector 1049 RSUExampleScenario.node[215].veinsmobility posy ETV
vector 1050 RSUExampleScenario.node[205].veinsmobility acceleration ETV
vector 1051 RSUExampleScenario.node[205].veinsmobility co2emission ETV
vector 1052 RSUExampleScenario.node[206].veinsmobility acceleration ETV
vector 1053 RSUExampleScenario.node[206].veinsmobility co2emission ETV
vector 1054 RSUExampleScenario.node[207].veinsmobility acceleration ETV
vector 1055 RSUExampleScenario.node[207].veinsmobility co2emission ETV
vector 1056 RSUExampleScenario.node[208].veinsmobility speed ETV
vector 1057 RSUExampleScenario.node[209].veinsmobility speed ETV
vector 1058 RSUExampleScenario.node[210].veinsmobility speed ETV
vector 1059 RSUExampleScenario.node[211].veinsmobility speed ETV
vector 1060 RSUExampleScenario.node[216].veinsmobility posx ETV
vector 1061 RSUExampleScenario.node[216].veinsmobility posy ETV
vector 1062 RSUExampleScenario.node[217].veinsmobility posx ETV
vector 1063 RSUExampleScenario.node[217].veinsmobility posy ETV
vector 1064 RSUExampleScenario.node[218].veinsmobility posx ETV
vector 1065 RSUExampleScenario.node[218].veinsmobility posy ETV
vector 1066 RSUExampleScenario.node[219].veinsmobility posx ETV
vector 1067 RSUExampleScenario.node[219].veinsmobility posy ETV
vector 1068 RSUExampleScenario.node[220].veinsmobility posx ETV
vector 1069 RSUExampleScenario.node[220].veinsmobility posy ETV
vector 1070 RSUExampleScenario.node[221].veinsmobility posx ETV
vector 1071 RSUExampleScenario.node[221].veinsmobility posy ETV
vector 1072 RSUExampleScenario.node[208].veinsmobility acceleration ETV
vector 1073 RSUExampleScenario.node[208].veinsmobility co2emission ETV
vector 1074 RSUExampleScenario.node[209].veinsmobility acceleration ETV
vector 1075 RSUExampleScenario.node[209].veinsmobility co2emission ETV
vector 1076 RSUExampleScenario.node[210].veinsmobility acceleration ETV
vector 1077 RSUExampleScenario.node[210].veinsmobility co2emission ETV
vector 1078 RSUExampleScenario.node[211].veinsmobility acceleration ETV
vector 1079 RSUExampleScenario.node[211].veinsmobility co2emission ETV
vector 1080 RSUExampleScenario.node[212].veinsmobility speed ETV
vector 1081 RSUExampleScenario.node[213].veinsmobility speed ETV
vector 1082 RSUExampleScenario.node[214].veinsmobility speed ETV
vector 1083 RSUExampleScenario.node[215].veinsmobility speed ETV
vector 1084 RSUExampleScenario.node[222].veinsmobility posx ETV
vector 1085 RSUExampleScenario.node[222].veinsmobility posy ETV
vector 1086 RSUExampleScenario.node[223].veinsmobility posx ETV
vector 1087 RSUExampleScenario.node[223].veinsmobility posy ETV
vector 1088 RSUExampleScenario.node[224].veinsmobility posx ETV
vector 1089 RSUExampleScenario.node[224].veinsmobility posy ETV
vector 1090 RSUExampleScenario.node[225].veinsmobility posx ETV
vector 1091 RSUExampleScenario.node[225].veinsmobility posy ETV
vector 1092 RSUExampleScenario.node[226].veinsmobility posx ETV
vector 1093 RSUExampleScenario.node[226].veinsmobility posy ETV
vector 1094 RSUExampleScenario.node[212].veinsmobility acceleration ETV
vector 1095 RSUExampleScenario.node[212].veinsmobility co2emission ETV
vector 1096 RSUExampleScenario.node[213].veinsmobility acceleration ETV
vector 1097 RSUExampleScenario.node[213].veinsmobility co2emission ETV
vector 1098 RSUExampleScenario.node[214].veinsmobility acceleration ETV
vector 1099 RSUExampleScenario.node[214].veinsmobility co2emission ETV
vector 1100 RSUExampleScenario.node[215].veinsmobility acceleration ETV
vector 1101 RSUExampleScenario.node[215].veinsmobility co2emission ETV
vector 1102 RSUExampleScenario.node[216].veinsmobility speed ETV
vector 1103 RSUExampleScenario.node[217].veinsmobility speed ETV
vector 1104 RSUExampleScenario.node[218].veinsmobility speed ETV
vector 1105 RSUExampleScenario.node[219].veinsmobility speed ETV
vector 1106 RSUExampleScenario.node[220].veinsmobility speed ETV
vector 1107 RSUExampleScenario.node[221].veinsmobility speed ETV
vector 1108 RSUExampleScenario.node[227].veinsmobility posx ETV
vector 1109 RSUExampleScenario.node[227].veinsmobility posy ETV
vector 1110 RSUExampleScenario.node[228].veinsmobility posx ETV
vector 1111 RSUExampleScenario.node[228].veinsmobility posy ETV
vector 1112 RSUExampleScenario.node[229].veinsmobility posx ETV
vector 1113 RSUExampleScenario.node[229].veinsmobility posy ETV
vector 1114 RSUExampleScenario.node[216].veinsmobility acceleration ETV
vector 1115 RSUExampleScenario.node[216].veinsmobility co2emission ETV
vector 1116 RSUExampleScenario.node[217].veinsmobility acceleration ETV
vector 1117 RSUExampleScenario.node[217].veinsmobility co2emission ETV
vector 1118 RSUExampleScenario.node[218].veinsmobility acceleration ETV
vector 1119 RSUExampleScenario.node[218].veinsmobility co2emission ETV
vector 1120 RSUExampleScenario.node[219].veinsmobility acceleration ETV
vector 1121 RSUExampleScenario.node[219].veinsmobility co2emission ETV
vector 1122 RSUExampleScenario.node[220].veinsmobility acceleration ETV
vector 1123 RSUExampleScenario.node[220].veinsmobility co2emission ETV
vector 1124 RSUExampleScenario.node[221].veinsmobility acceleration ETV
vector 1125 RSUExampleScenario.node[221].veinsmobility co2emission ETV
vector 1126 RSUExampleScenario.node[222].veinsmobility speed ETV
vector 1127 RSUExampleScenario.node[223].veinsmobility speed ETV
vector 1128 RSUExampleScenario.node[224].veinsmobility speed ETV
vector 1129 RSUExampleScenario.node[225].veinsmobility speed ETV
vector 1130 RSUExampleScenario.node[226].veinsmobility speed ETV
vector 1131 RSUExampleScenario.node[230].veinsmobility posx ETV
vector 1132 RSUExampleScenario.node[230].veinsmobility posy ETV
vector 1133 RSUExampleScenario.node[231].veinsmobility posx ETV
vector 1134 RSUExampleScenario.node[231].veinsmobility posy ETV
vector 1135 RSUExampleScenario.node[232].veinsmobility posx ETV
vector 1136 RSUExampleScenario.node[232].veinsmobility posy ETV
vector 1137 RSUExampleScenario.node[233].veinsmobility posx ETV
vector 1138 RSUExampleScenario.node[233].veinsmobility posy ETV
vector 1139 RSUExampleScenario.node[234].veinsmobility posx ETV
vector 1140 RSUExampleScenario.node[234].veinsmobility posy ETV
vector 1141 RSUExampleScenario.node[222].veinsmobility acceleration ETV
vector 1142 RSUExampleScenario.node[222].veinsmobility co2emission ETV
vector 1143 RSUExampleScenario.node[223].veinsmobility acceleration ETV
vector 1144 RSUExampleScenario.node[223].veinsmobility co2emission ETV
vector 1145 RSUExampleScenario.node[224].veinsmobility acceleration ETV
vector 1146 RSUExampleScenario.node[224].veinsmobility co2emission ETV
vector 1147 RSUExampleScenario.node[225].veinsmobility acceleration ETV
vector 1148 RSUExampleScenario.node[225].veinsmobility co2emission ETV
vector 1149 RSUExampleScenario.node[226].veinsmobility acceleration ETV
vector 1150 RSUExampleScenario.node[226].veinsmobility co2emission ETV
vector 1151 RSUExampleScenario.node[227].veinsmobility speed ETV
vector 1152 RSUExampleScenario.node[228].veinsmobility speed ETV
vector 1153 RSUExampleScenario.node[229].veinsmobility speed ETV
vector 1154 RSUExampleScenario.node[235].veinsmobility posx ETV
vector 1155 RSUExampleScenario.node[235].veinsmobility posy ETV
vector 1156 RSUExampleScenario.node[236].veinsmobility posx ETV
vector 1157 RSUExampleScenario.node[236].veinsmobility posy ETV
vector 1158 RSUExampleScenario.node[237].veinsmobility posx ETV
vector 1159 RSUExampleScenario.node[237].veinsmobility posy ETV
vector 1160 RSUExampleScenario.node[238].veinsmobility posx ETV
vector 1161 RSUExampleScenario.node[238].veinsmobility posy ETV
vector 1162 RSUExampleScenario.node[239].veinsmobility posx ETV
vector 1163 RSUExampleScenario.node[239].veinsmobility posy ETV
vector 1164 RSUExampleScenario.node[240].veinsmobility posx ETV
vector 1165 RSUExampleScenario.node[240].veinsmobility posy ETV
vector 1166 RSUExampleScenario.node[227].veinsmobility acceleration ETV
vector 1167 RSUExampleScenario.node[227].veinsmobility co2emission ETV
vector 1168 RSUExampleScenario.node[228].veinsmobility acceleration ETV
vector 1169 RSUExampleScenario.node[228].veinsmobility co2emission ETV
[...]
3542	92873013 11391 29198587 38353417 665 1000 336 20370.568079472 21064.679560356 6963552.095606 144328959169.48
2985	92884404 9669 29198587 38353417 665 1000 336 0.973 9.8383176862415 745.59926714515 2852.765594943
2984	92894073 10604 29198587 38353417 665 1000 336 -4.5 2.5788008708507 -0.45605100349057 573.76161394792
2970	92904677 10279 29198587 38353417 665 1000 336 0 13.990021378273 2637.537154991 32804.149534216
2928	92914956 11359 29198587 38353417 665 1000 336 16073.189347387 18336.346648047 5761768.6490169 98963882549.126
2927	92926315 11403 29198587 38353417 665 1000 336 13344.091541144 13981.538023462 4610924.4964518 63289414568.748
3343	92937718 10387 29198587 38353417 665 1000 336 -0.30529559197216 14.724712939013 1082.6868357346 6016.7967280716
3342	92948105 11417 29198587 38353417 665 1000 336 -4.5 2.5737477765651 -14.589285654519 327.799738856
3320	92959522 10991 29198587 38353417 665 1000 336 0 29.30377329982 5655.8818187927 120480.4755321
3277	92970513 11385 29198587 38353417 665 1000 336 20991.752059723 23927.823140023 7451992.115019 165576986506.39
3276	92981898 11359 29198587 38353417 665 1000 336 18416.738344101 20841.683012348 6388376.222322 121560713418.51
1021	92993257 10175 29225264 38353417 666 1000 335 0.973 10.746745447469 899.55878296866 4110.7862876829
1020	93003432 11572 29225264 38353417 666 1000 335 -4.5 2.5994950513355 0.61981701306068 798.12532654891
1001	93015004 11252 29225264 38353417 666 1000 335 0 14.858104486768 3070.9757701202 38827.934687984
969	93026256 11010 29225264 38353417 666 1000 335 21315.550865215 23331.73858798 7410677.9922783 164035338140.34
968	93037266 11019 29225264 38353417 666 1000 335 12920.713731145 14296.097739814 4622828.4565331 63857516755.358
1409	93048285 10901 29198587 38353417 665 1000 336 -0.16062193703753 23.409834925655 1453.3048873627 10519.859795104
1408	93059186 11877 29198587 38353417 665 1000 336 -4.5 2.4046062772162 22.122944267929 232.43345728915
1379	93071063 11380 29198587 38353417 665 1000 336 4.8488909950217 33.645530391838 7689.7914300303 183670.93877887
1335	93082443 11380 29198587 38353417 665 1000 336 17007.192793415 22631.431905061 6646951.2963403 132744136174.67
1334	93093823 11381 29198587 38353417 665 1000 336 19129.360247477 21087.165359528 6703818.9676113 133880967105.35
3287	93105204 9958 29198587 38353417 665 1000 336 0.973 8.3495861969045 730.1772020024 2446.0811389652
3286	93115162 11151 29198587 38353417 665 1000 336 -4.5 2.5528449488804 -12.76488914214 442.88559964119
3265	93126313 10756 29198587 38353417 665 1000 336 0 12.857689491882 2977.1129519374 35048.313510233
3222	93137069 11385 29198587 38353417 665 1000 336 19605.496622609 21050.302490309 6878735.2116829 140878451702.76
3221	93148454 11360 29198587 38353417 665 1000 336 13739.9771727 15217.429322898 4907204.6097741 71749128968.56
4073	93159814 10471 29198587 38353417 665 1000 336 0.66187118069589 12.70731336066 859.44010272499 3296.9303286589
4072	93170285 11899 29198587 38353417 665 1000 336 -4.5 2.5906602461124 -5.2665996852304 163.23661072367
4053	93182184 11388 29198587 38353417 665 1000 336 7.4931509777053 20.431463252449 4998.4429880456 78767.53158669
4014	93193572 11400 29198587 38353417 665 1000 336 20978.782785523 22771.73951882 7294030.8167526 158432687875.89
4013	93204972 11390 29198587 38353417 665 1000 336 15130.565356302 19132.607421808 5646295.8622731 95374726992.938
3841	93216362 10392 29198587 38353417 665 1000 336 -0.75220374351853 14.578648530864 1094.9570856251 6123.3510052009
3840	93226754 11788 29198587 38353417 665 1000 336 -4.5 2.5896097636549 -17.231229494242 462.96311709136
3820	93238542 11380 29198587 38353417 665 1000 336 4.3513268719395 28.832677559475 5325.0023429655 100800.2711964
3770	93249922 11396 29198587 38353417 665 1000 336 16213.008459446 20458.590796841 6365119.4095133 121014602138.82
3769	93261318 11380 29198587 38353417 665 1000 336 11254.806411752 12874.898269585 4112496.3865092 50397388866
3204	93272698 10061 29198587 38353417 665 1000 336 0.973 12.90677486089 775.60229410026 2937.0993106665
3203	93282759 11277 29198587 38353417 665 1000 336 -4.5 2.5671914434526 -13.947567564317 395.30429519702
3191	93294036 10822 29198587 38353417 665 1000 336 0 19.713519193003 3485.0775061323 46492.017166501
3149	93304858 11390 29198587 38353417 665 1000 336 18439.041782132 20514.352175702 6614945.5962702 130373297689.58
3148	93316248 11396 29198587 38353417 665 1000 336 10528.265737724 12272.094857623 3787450.5524673 42796886490.727
1819	93327644 10353 29198587 38353417 665 1000 336 -1.9437078990655 21.92323071821 1127.4943694091 7326.5679471263
1818	93337997 11393 29198587 38353417 665 1000 336 -4.5 2.516824658704 15.22329892574 326.18343563135
1797	93349390 10959 29198587 38353417 665 1000 336 0 32.688684104003 5477.6758717482 110740.99407465
1762	93360349 11400 29198587 38353417 665 1000 336 15852.057374623 19350.078074754 5840654.5195155 101950923283.43
1761	93371749 11390 29198587 38353417 665 1000 336 10295.143649081 12627.139348825 3900832.8992293 45419919172.13
1466	93383139 10879 29198587 38353417 665 1000 336 -0.50910973816054 18.109431429583 1457.7564958985 9787.5335465909
1465	93394018 11878 29198587 38353417 665 1000 336 -4.5 2.5757988416823 2.7336322190302 236.31060670775
1438	93405896 11387 29198587 38353417 665 1000 336 5.7728010809303 27.790666512952 8136.9501612292 206908.58799909
1399	93417283 11394 29198587 38353417 665 1000 336 17007.656468946 23987.494029502 6812513.4651694 139848393421.93
1398	93428677 11391 29198587 38353417 665 1000 336 19129.506002401 21630.763945252 6812624.6261536 138394922713.48
411	93440068 9718 29225264 38353417 666 1000 335 0.973 8.2017685097618 787.71034227113 2805.868560525
410	93449786 10928 29225264 38353417 666 1000 335 -4.5 2.5602607928449 -0.0053772205021234 503.27762937537
391	93460714 10594 29225264 38353417 666 1000 335 0 12.677447071496 3255.6625232381 37092.591157993
349	93471308 11029 29225264 38353417 666 1000 335 20718.161673151 23253.410005713 7343116.2002102 161193711492.02
348	93482337 11034 29225264 38353417 666 1000 335 13917.261872009 15040.77105103 4857943.2871718 70492426029.453
3017	93493371 9752 29198587 38353417 665 1000 336 0.973 11.821088403153 677.33642475369 2238.9034391417
3016	93503123 10719 29198587 38353417 665 1000 336 -4.5 2.5683823823696 -16.953319022008 388.53758199187
2993	93513842 10358 29198587 38353417 665 1000 336 0 17.596277899919 2615.6821444585 34208.796269786
2954	93524200 11396 29198587 38353417 665 1000 336 18737.256650023 19743.342980353 6524567.2695964 126710595382.62
2953	93535596 11375 29198587 38353417 665 1000 336 10920.374990666 12630.918366971 3899453.0762223 45321875368.385
2917	93546971 9539 29198587 38353417 665 1000 336 0.973 8.2538091607535 647.2918463512 2043.6866083184
2916	93556510 10129 29198587 38353417 665 1000 336 -4.5 2.5232271941379 -12.556303662851 442.45617386925
2895	93566639 9819 29198587 38353417 665 1000 336 0 13.666415107877 2231.607886897 27624.142806855
2856	93576458 11398 29198587 38353417 665 1000 336 20131.271070698 20235.868247753 6783167.1067495 136938918275.83
2855	93587856 11310 29198587 38353417 665 1000 336 6644.6242445416 8838.2314811868 2594028.6347621 20216965860.322
2890	93599166 9904 29198587 38353417 665 1000 336 -0.1803293258357 11.688568119012 803.29237477039 3536.7608169694
2889	93609070 10845 29198587 38353417 665 1000 336 -4.5 2.590261348593 -14.362337987134 468.24391180914
2872	93619915 10456 29198587 38353417 665 1000 336 0 28.538524516435 3347.4042179848 57355.867901632
2833	93630371 11392 29198587 38353417 665 1000 336 17059.781020157 18036.678741553 5876982.5111871 102805451653.48
2832	93641763 11345 29198587 38353417 665 1000 336 17538.39572626 19459.986511328 6233647.7318894 115803423759.25
3474	93653108 10122 29198587 38353417 665 1000 336 0.973 9.6830366952044 817.6355406317 3161.9340256237
3473	93663230 11623 29198587 38353417 665 1000 336 -4.5 2.5681859050179 0.65539392903447 519.018302813
3456	93674853 11225 29198587 38353417 665 1000 336 0 13.209848343556 3366.9825700612 37800.613457417
3411	93686078 11384 29198587 38353417 665 1000 336 14246.375288645 16899.278637916 5211495.9872537 81056740454.799
3410	93697462 11379 29198587 38353417 665 1000 336 12700.746122035 13394.585166694 4450369.9216296 58953566147.344
1585	93708841 10275 29198587 38353417 665 1000 336 0.973 8.3101303537661 779.49812873154 2642.9078292787
1584	93719116 11826 29198587 38353417 665 1000 336 -4.5 2.5534253447317 0.17938135315199 356.48971800565
1565	93730942 11333 29198587 38353417 665 1000 336 0 12.867520865642 3661.4302589385 43421.408083019
1519	93742275 11384 29198587 38353417 665 1000 336 19436.620521361 20962.972347853 6824598.8683453 138702595365.37
1518	93753659 11400 29198587 38353417 665 1000 336 16048.640362757 18173.268854714 5680311.12518 96123052673.835
1837	93765059 10104 29198587 38353417 665 1000 336 0.62390346161763 13.268616213924 898.07291086139 4325.3782051669
1836	93775163 11009 29198587 38353417 665 1000 336 -4.5 2.5782595594414 -20.390238959811 428.22881494031
1823	93786172 10615 29198587 38353417 665 1000 336 0 20.511860109497 4327.1217796178 76856.919050617
1784	93796787 11400 29198587 38353417 665 1000 336 24392.783242793 27038.617452029 8549175.1591194 217705769273.27
1783	93808187 11401 29198587 38353417 665 1000 336 11228.057123751 13213.438503678 4116829.2945145 50554562191.722
2772	93819588 10971 29198587 38353417 665 1000 336 -1.3874850049429 19.550068734414 1638.8766200142 13617.054378753
2771	93830559 11871 29198587 38353417 665 1000 336 -4.5 2.4772817155113 1.1705191472545 289.61713749608
2750	93842430 11384 29198587 38353417 665 1000 336 15.25859718039 33.086774105797 8620.8820286546 232013.87787444
2714	93853814 11400 29198587 38353417 665 1000 336 8757.7768870783 16062.741381771 3990406.5669037 49380102019.518
2713	93865214 11380 29198587 38353417 665 1000 336 17189.719518427 18891.55419057 6069782.6086599 109675471288
3780	93876594 10503 29198587 38353417 665 1000 336 0.76460146839663 14.541305345836 928.98507246939 3745.2849336815
3779	93887097 11917 29198587 38353417 665 1000 336 -4.0628498319536 2.5692318018759 -6.9585168944227 142.20913632169
3760	93899014 11389 29198587 38353417 665 1000 336 10.908743112309 19.484707057276 5490.2526929311 93496.2548241
3712	93910403 11379 29198587 38353417 665 1000 336 17991.556360188 19576.569404254 6403999.4404681 122127844466.4
3711	93921782 11388 29198587 38353417 665 1000 336 14572.549621942 19285.972554367 5681677.0426226 96745131241.549
2373	93933170 9799 29198587 38353417 665 1000 336 0.80825855917793 13.762585767635 762.0887521527 3049.7474014777
2372	93942969 10884 29198587 38353417 665 1000 336 -4.5 2.5608275351115 6.4830543305746 337.0237545195
2353	93953853 10488 29198587 38353417 665 1000 336 0 19.356558855995 3038.5800417839 42139.357074356
2306	93964341 11406 29198587 38353417 665 1000 336 23775.013011639 25098.415941186 8224837.4275164 201377661636.14
2305	93975747 11395 29198587 38353417 665 1000 336 17482.643615437 19787.838137197 6309595.8195602 118626761072.12
2261	93987142 10244 29198587 38353417 665 1000 336 0.973 12.975603574289 958.46591303851 4498.2101033723
2260	93997386 11851 29198587 38353417 665 1000 336 -4.5 2.4940052532125 -2.5498226586647 331.9386734995
2243	94009237 11386 29198587 38353417 665 1000 336 5.1123395196194 18.364653847295 4711.0420985399 67625.911531433
2206	94020623 11389 29198587 38353417 665 1000 336 20978.739859736 21896.9774815 7150459.5007808 152183888826.34
2205	94032012 11398 29198587 38353417 665 1000 336 13157.163560856 16898.326602776 5085237.3345414 77317481585.149
4046	94043410 10899 29198587 38353417 665 1000 336 -0.43963751178786 18.740139982171 1422.8880743598 10324.680002251
4045	94054309 11894 29198587 38353417 665 1000 336 -4.4994023044826 2.5160489420407 4.236088669981 228.10564643242
4030	94066203 11359 29198587 38353417 665 1000 336 15.269598980987 27.576663845148 7809.1019424381 189414.596742
3986	94077562 11389 29198587 38353417 665 1000 336 8964.6370989265 12354.797350079 3414579.1785425 35034622848.46
3985	94088951 11379 29198587 38353417 665 1000 336 11098.797485974 17692.344490368 4823227.9212324 70372719187.748
3345	94100330 9979 29198587 38353417 665 1000 336 0.973 8.2049639317729 715.77965746174 2289.7415695028
3344	94110309 11217 29198587 38353417 665 1000 336 -4.5 2.3575127778575 -0.29763147728517 345.53418982855
3321	94121526 10763 29198587 38353417 665 1000 336 0 13.312400600621 3217.0362539586 39531.602825039
3279	94132289 11394 29198587 38353417 665 1000 336 20175.16546657 20846.248581363 6856773.1368718 139941115862.21
3278	94143683 11344 29198587 38353417 665 1000 336 14204.099670691 16352.912114054 5079926.8650258 76918475631.467
3579	94155027 10618 29198587 38353417 665 1000 336 0.24747140950747 14.216671740102 1122.8065615301 6009.513677772
3578	94165645 11874 29198587 38353417 665 1000 336 -4.5 2.5586475193035 5.5027584452948 210.85206275707
3559	94177519 11389 29198587 38353417 665 1000 336 5.7924994170116 24.917953924778 6253.3672864352 123596.62360967
3518	94188908 11395 29198587 38353417 665 1000 336 9048.60781203 10934.214097311 3332938.9533891 33190983661.489
3517	94200303 11388 29198587 38353417 665 1000 336 12631.157437115 17688.305835464 4931981.2540851 73052729136.262
3553	94211691 10151 29198587 38353417 665 1000 336 0.57966830789066 15.581782298621 915.61476831105 4231.2122689155
3552	94221842 11396 29198587 38353417 665 1000 336 -4.5 2.5805058118887 -0.64225554440637 389.48817970721
3531	94233238 10996 29198587 38353417 665 1000 336 0 24.844902691211 4341.939292854 70438.040914642
3490	94244234 11379 29198587 38353417 665 1000 336 19207.343145527 20468.74180452 6700542.4477448 133688337973.46
3489	94255613 11393 29198587 38353417 665 1000 336 15194.060341025 18559.732640145 5541591.0166061 91703789390.711
2403	94267006 10032 29198587 38353417 665 1000 336 0.973 10.001635917236 737.35152489261 2572.3724833576
2402	94277038 11401 29198587 38353417 665 1000 336 -4.5 2.5355174441356 5.1537677647327 365.60190656554
2379	94288439 10988 29198587 38353417 665 1000 336 0 18.631890769623 3007.5159492036 34263.230583844
2335	94299427 11385 29198587 38353417 665 1000 336 22452.509387587 25005.589807686 7976187.3859911 189543798076.43
2334	94310812 11391 29198587 38353417 665 1000 336 20369.866010884 21064.700684392 6968932.7136816 144551425926.88
1918	94322203 10053 29198587 38353417 665 1000 336 0.80071639784289 12.735579001916 672.51618964967 2461.6622301844
1917	94332256 11189 29198587 38353417 665 1000 336 -4.5 2.5707568067126 -11.167897260616 278.45746115687
1890	94343445 10775 29198587 38353417 665 1000 336 0 18.752043713377 2722.0588708612 36081.190410424
1855	94354220 11355 29198587 38353417 665 1000 336 8836.9851983029 11267.903564716 3341536.1075885 33506587313.621
1854	94365575 11349 29198587 38353417 665 1000 336 10398.794511336 11514.931767907 3648171.3558273 39670210335.144
4093	94376924 10856 29198587 38353417 665 1000 336 -0.49561753208024 20.380515828094 1426.5935497055 9914.150214874
4092	94387780 11842 29198587 38353417 665 1000 336 -4.5 2.5524329810403 11.709616549067 232.01490270689
4077	94399622 11381 29198587 38353417 665 1000 336 6.9157366910063 27.832774762016 7657.0729652346 184722.86898941
4038	94411003 11384 29198587 38353417 665 1000 336 10777.982673016 15746.322799477 4410116.1537767 58492784322.302
4037	94422387 11387 29198587 38353417 665 1000 336 9350.1419587461 13029.732322007 3621878.3967398 39448979626.593
4379	94433774 11025 29198587 38353417 665 1000 336 -1.4026757890316 19.472561039954 1662.4858807184 12969.26643773
4378	94444799 11848 29198587 38353417 665 1000 336 -4.5 2.5069829986896 -14.750756160935 253.94997472819
4357	94456647 11372 29198587 38353417 665 1000 336 11.095913376644 30.849186741321 9069.0171828396 256377.66742768
4309	94468019 11393 29198587 38353417 665 1000 336 17059.69296679 24810.848606426 6982831.3572048 147025613387.29
4308	94479412 11375 29198587 38353417 665 1000 336 19265.131969171 22566.205259025 6908179.6885904 142358867405.2
3238	94490787 9879 29198587 38353417 665 1000 336 0.59100100373567 12.548047102772 780.34806337979 3170.0117129771
3237	94500666 10661 29198587 38353417 665 1000 336 -4.5 2.4990561197745 -3.5874057858592 254.75168921247
3214	94511327 10295 29198587 38353417 665 1000 336 0 20.574928855094 3606.2811299877 59049.555624383
3178	94521622 11311 29198587 38353417 665 1000 336 20919.119287652 22957.087537226 7296654.850801 158565023006.59
3177	94532933 11402 29198587 38353417 665 1000 336 16950.201680198 19011.415656146 5872080.8571895 102778054265.2
4352	94544335 9828 29198587 38353417 665 1000 336 0.973 10.548530311952 754.5804275028 2895.95246893
4351	94554163 10810 29198587 38353417 665 1000 336 -4.5 2.5385649312753 -0.65246794484556 574.93714334758
4330	94564973 10473 29198587 38353417 665 1000 336 0 14.799674276349 2673.1876971408 32185.333827275
4280	94575446 11385 29198587 38353417 665 1000 336 16924.903200029 18939.778608444 6111344.3672686 111247759485.37
4279	94586831 11393 29198587 38353417 665 1000 336 13441.571457429 14242.12644956 4678755.7273699 65166020332.096
4397	94598224 9975 29198587 38353417 665 1000 336 0.973 9.8663037650474 770.78746699609 2810.4797658447
4396	94608199 11130 29198587 38353417 665 1000 336 -4.5 2.5985436169198 -2.3865275793722 537.08131445997
4383	94619329 10770 29198587 38353417 665 1000 336 0 13.678821718218 3111.7250550255 37574.450661329
4338	94630099 11370 29198587 38353417 665 1000 336 19939.481944571 21164.209189601 6872468.292321 140608838403.84
4337	94641469 11393 29198587 38353417 665 1000 336 13520.374935203 15821.262925672 4978858.3264919 73931514980.596
3393	94652862 9878 29198587 38353417 665 1000 336 0.5719650609174 8.9267564998242 720.28558713475 2489.3201320945
3392	94662740 10766 29198587 38353417 665 1000 336 -4.5 2.4549350813963 -12.494538484409 311.05249241146
3375	94673506 10379 29198587 38353417 665 1000 336 0 21.695717015351 3348.5742060228 49074.42382938
3331	94683885 11345 29198587 38353417 665 1000 336 20401.795365878 22238.318046429 7132149.197244 151486513123.32
3330	94695230 11393 29198587 38353417 665 1000 336 16950.015110857 18118.44772484 5773015.874443 99214190570.688
3427	94706623 10519 29198587 38353417 665 1000 336 -0.47539121858692 25.939491493335 1474.691784931 12473.399498257
3426	94717142 11806 29198587 38353417 665 1000 336 -4.5 2.4324854340913 -16.00852834274 402.67566537828
3401	94728948 11388 29198587 38353417 665 1000 336 5.6821281402334 40.422590456727 7299.2372971043 180548.62501715
3364	94740336 11377 29198587 38353417 665 1000 336 10887.107254112 15361.827682342 4323780.5691242 56361236808.453
3363	94751713 11379 29198587 38353417 665 1000 336 11499.344424986 14705.778031789 4489630.3667446 60125960941.315
4292	94763092 10052 29198587 38353417 665 1000 336 0.973 14.71054626953 867.91108419195 3960.4133838543
4291	94773144 11057 29198587 38353417 665 1000 336 -4.5 2.597071861336 6.1147790288546 579.47870076316
4266	94784201 10675 29198587 38353417 665 1000 336 0 19.940448315222 3393.6944290258 47474.492541068
4224	94794876 11394 29198587 38353417 665 1000 336 20301.50400394 21341.950692916 6921059.7044797 142593667018.47
4223	94806270 11388 29198587 38353417 665 1000 336 9355.7184349376 11906.148956149 3707307.1545181 41110149973.392
3140	94817658 10183 29198587 38353417 665 1000 336 0.54712833340738 9.017003523724 815.29920208255 3062.1462148568
3139	94827841 11167 29198587 38353417 665 1000 336 -4.5 2.5126847419189 -12.19869366566 330.23271511505
3120	94839008 10770 29198587 38353417 665 1000 336 0 22.11566528824 4118.445144523 69048.549137655
3080	94849778 11391 29198587 38353417 665 1000 336 20176.734542763 22276.179383044 7061716.1043862 148584738652.6
3079	94861169 11397 29198587 38353417 665 1000 336 15230.060602017 18171.70815418 5439896.1416632 88286541897.374

