version 2
run WithChannelSwitching-0-20230114-02:27:09-38815
attr configname WithChannelSwitching
attr datetime 20230114-02:27:09
attr experiment WithChannelSwitching
attr inifile omnetpp.ini
attr iterationvars ""
attr iterationvarsf ""
attr measurement ""
attr network RSUExampleScenario
attr processid 38815
attr repetition 0
attr replication #0
attr resultdir results
attr runnumber 0
attr seedset 0
param *.**.nic.mac1609_4.useServiceChannel true
param *.node[*].appl.dataOnSch true
param *.rsu[*].appl.dataOnSch true
param *.playgroundSizeX 35000m
param *.playgroundSizeY 35000m
param *.playgroundSizeZ 50m
param *.annotations.draw true
param *.manager.updateInterval 1s
param *.manager.host "\"localhost\""
param *.manager.port 9999
param *.manager.autoShutdown true
param *.manager.launchConfig "xmldoc(\"cologne.launchd.xml\")"
param *.rsu[0].mobility.x 13000
param *.rsu[0].mobility.y 18000
param *.rsu[0].mobility.z 0
param *.rsu[1].mobility.x 15000
param *.rsu[1].mobility.y 21000
param *.rsu[1].mobility.z 0
param *.rsu[2].mobility.x 17000
param *.rsu[2].mobility.y 18000
param *.rsu[2].mobility.z 34
param *.rsu[3].mobility.x 18000
param *.rsu[3].mobility.y 21000
param *.rsu[3].mobility.z 0
param *.rsu[4].mobility.x 13000
param *.rsu[4].mobility.y 15000
param *.rsu[4].mobility.z 0
param *.rsu[5].mobility.x 20000
param *.rsu[5].mobility.y 16000
param *.rsu[5].mobility.z 34
param *.rsu[*].applType "\"TraCIDemoRSU11p\""
param *.rsu[*].appl.headerLength "80 bit"
param *.rsu[*].appl.sendBeacons false
param *.rsu[*].appl.dataOnSch false
param *.rsu[*].appl.beaconInterval 1s
param *.rsu[*].appl.beaconUserPriority 7
param *.rsu[*].appl.dataUserPriority 5
param *.rsu[*].nic.phy80211p.antennaOffsetZ "0 m"
param *.connectionManager.sendDirect true
param *.connectionManager.maxInterfDist 400m
param *.connectionManager.drawMaxIntfDist true
param *.**.nic.mac1609_4.useServiceChannel false
param *.**.nic.mac1609_4.txPower 120mW
param *.**.nic.mac1609_4.bitrate 6Mbps
param *.**.nic.phy80211p.minPowerLevel -220dBm
param *.**.nic.phy80211p.useNoiseFloor false
param *.**.nic.phy80211p.noiseFloor -98dBm
param *.**.nic.phy80211p.decider "xmldoc(\"config.xml\")"
param *.**.nic.phy80211p.analogueModels "xmldoc(\"config.xml\")"
param *.**.nic.phy80211p.usePropagationDelay true
param *.**.nic.phy80211p.antenna "xmldoc(\"antenna.xml\", \"/root/Antenna[@id='monopole']\")"
param *.node[*].nic.phy80211p.antennaOffsetY "0 m"
param *.node[*].nic.phy80211p.antennaOffsetZ "1.895 m"
param *.node[*].applType "\"TraCIDemo11p\""
param *.node[*].appl.headerLength "80 bit"
param *.node[*].appl.sendBeacons false
param *.node[*].appl.dataOnSch false
param *.node[*].appl.beaconInterval 5s
param *.node[*].veinsmobility.x 0
param *.node[*].veinsmobility.y 0
param *.node[*].veinsmobility.z 0
param *.node[*].veinsmobility.setHostSpeed false
param *.node[*0].veinsmobility.accidentCount 0
param *.node[*0].veinsmobility.accidentStart 73s
param *.node[*0].veinsmobility.accidentDuration 50s

scalar RSUExampleScenario.node[115].appl generatedWSMs 66
scalar RSUExampleScenario.node[115].appl receivedWSMs 86
scalar RSUExampleScenario.node[115].appl generatedBSMs 0
scalar RSUExampleScenario.node[115].appl receivedBSMs 0
scalar RSUExampleScenario.node[115].appl generatedWSAs 0
scalar RSUExampleScenario.node[115].appl receivedWSAs 0
scalar RSUExampleScenario.node[115].nic.phy80211p busyTime 0.00040072727272727
scalar RSUExampleScenario.node[115].nic.mac1609_4 ReceivedUnicastPackets 0
scalar RSUExampleScenario.node[115].nic.mac1609_4 ReceivedBroadcasts 86
scalar RSUExampleScenario.node[115].nic.mac1609_4 SentPackets 65
scalar RSUExampleScenario.node[115].nic.mac1609_4 SentAcknowledgements 0
scalar RSUExampleScenario.node[115].nic.mac1609_4 SNIRLostPackets 26
scalar RSUExampleScenario.node[115].nic.mac1609_4 RXTXLostPackets 4
scalar RSUExampleScenario.node[115].nic.mac1609_4 TotalLostPackets 30
scalar RSUExampleScenario.node[115].nic.mac1609_4 DroppedPacketsInMac 0
scalar RSUExampleScenario.node[115].nic.mac1609_4 TooLittleTime 0
scalar RSUExampleScenario.node[115].nic.mac1609_4 TimesIntoBackoff 107
scalar RSUExampleScenario.node[115].nic.mac1609_4 SlotsBackoff 102
scalar RSUExampleScenario.node[115].nic.mac1609_4 NumInternalContention 0
scalar RSUExampleScenario.node[115].nic.mac1609_4 totalBusyTime 0.038113
scalar RSUExampleScenario.node[115].veinsmobility startTime 24
scalar RSUExampleScenario.node[115].veinsmobility totalTime 65
scalar RSUExampleScenario.node[115].veinsmobility stopTime 90
scalar RSUExampleScenario.node[115].veinsmobility minSpeed 2.2041026292834
scalar RSUExampleScenario.node[115].veinsmobility maxSpeed 14.517381465084
scalar RSUExampleScenario.node[115].veinsmobility totalDistance 738.56351448419
scalar RSUExampleScenario.node[115].veinsmobility totalCO2Emission 217.05120907188
scalar RSUExampleScenario.node[29].appl generatedWSMs 88
scalar RSUExampleScenario.node[29].appl receivedWSMs 71
scalar RSUExampleScenario.node[29].appl generatedBSMs 0
scalar RSUExampleScenario.node[29].appl receivedBSMs 0
scalar RSUExampleScenario.node[29].appl generatedWSAs 0
scalar RSUExampleScenario.node[29].appl receivedWSAs 0
scalar RSUExampleScenario.node[29].nic.phy80211p busyTime 0.000203
scalar RSUExampleScenario.node[29].nic.mac1609_4 ReceivedUnicastPackets 0
scalar RSUExampleScenario.node[29].nic.mac1609_4 ReceivedBroadcasts 71
scalar RSUExampleScenario.node[29].nic.mac1609_4 SentPackets 87
scalar RSUExampleScenario.node[29].nic.mac1609_4 SentAcknowledgements 0
scalar RSUExampleScenario.node[29].nic.mac1609_4 SNIRLostPackets 6
scalar RSUExampleScenario.node[29].nic.mac1609_4 RXTXLostPackets 1
scalar RSUExampleScenario.node[29].nic.mac1609_4 TotalLostPackets 7
scalar RSUExampleScenario.node[29].nic.mac1609_4 DroppedPacketsInMac 0
scalar RSUExampleScenario.node[29].nic.mac1609_4 TooLittleTime 0
scalar RSUExampleScenario.node[29].nic.mac1609_4 TimesIntoBackoff 129
scalar RSUExampleScenario.node[29].nic.mac1609_4 SlotsBackoff 156
scalar RSUExampleScenario.node[29].nic.mac1609_4 NumInternalContention 0
scalar RSUExampleScenario.node[29].nic.mac1609_4 totalBusyTime 0.037439
scalar RSUExampleScenario.node[29].veinsmobility startTime 6
scalar RSUExampleScenario.node[29].veinsmobility totalTime 87
scalar RSUExampleScenario.node[29].veinsmobility stopTime 94
scalar RSUExampleScenario.node[29].veinsmobility minSpeed 2.2169354937272
scalar RSUExampleScenario.node[29].veinsmobility maxSpeed 16.156145297797
scalar RSUExampleScenario.node[29].veinsmobility totalDistance 1203.4330292283
scalar RSUExampleScenario.node[29].veinsmobility totalCO2Emission 272.0017889066
scalar RSUExampleScenario.node[30].appl generatedWSMs 88
scalar RSUExampleScenario.node[30].appl receivedWSMs 168
scalar RSUExampleScenario.node[30].appl generatedBSMs 0
scalar RSUExampleScenario.node[30].appl receivedBSMs 0
scalar RSUExampleScenario.node[30].appl generatedWSAs 0
scalar RSUExampleScenario.node[30].appl receivedWSAs 0
scalar RSUExampleScenario.node[30].nic.phy80211p busyTime 0.00051409090909091
scalar RSUExampleScenario.node[30].nic.mac1609_4 ReceivedUnicastPackets 0
scalar RSUExampleScenario.node[30].nic.mac1609_4 ReceivedBroadcasts 168
scalar RSUExampleScenario.node[30].nic.mac1609_4 SentPackets 87
scalar RSUExampleScenario.node[30].nic.mac1609_4 SentAcknowledgements 0
scalar RSUExampleScenario.node[30].nic.mac1609_4 SNIRLostPackets 23
scalar RSUExampleScenario.node[30].nic.mac1609_4 RXTXLostPackets 14
scalar RSUExampleScenario.node[30].nic.mac1609_4 TotalLostPackets 37
scalar RSUExampleScenario.node[30].nic.mac1609_4 DroppedPacketsInMac 0
scalar RSUExampleScenario.node[30].nic.mac1609_4 TooLittleTime 0
scalar RSUExampleScenario.node[30].nic.mac1609_4 TimesIntoBackoff 139
scalar RSUExampleScenario.node[30].nic.mac1609_4 SlotsBackoff 131
scalar RSUExampleScenario.node[30].nic.mac1609_4 NumInternalContention 0
scalar RSUExampleScenario.node[30].nic.mac1609_4 totalBusyTime 0.062495036753
scalar RSUExampleScenario.node[30].veinsmobility startTime 7
scalar RSUExampleScenario.node[30].veinsmobility totalTime 87
scalar RSUExampleScenario.node[30].veinsmobility stopTime 95
scalar RSUExampleScenario.node[30].veinsmobility minSpeed 2.0367762609618
scalar RSUExampleScenario.node[30].veinsmobility maxSpeed 13.293506632475
scalar RSUExampleScenario.node[30].veinsmobility totalDistance 792.69209865258
scalar RSUExampleScenario.node[30].veinsmobility totalCO2Emission 198.22994240641
scalar RSUExampleScenario.node[68].appl generatedWSMs 121
scalar RSUExampleScenario.node[68].appl receivedWSMs 116
scalar RSUExampleScenario.node[68].appl generatedBSMs 0
scalar RSUExampleScenario.node[68].appl receivedBSMs 0
scalar RSUExampleScenario.node[68].appl generatedWSAs 0
scalar RSUExampleScenario.node[68].appl receivedWSAs 0
scalar RSUExampleScenario.node[68].nic.phy80211p busyTime 0.0002339173553719
scalar RSUExampleScenario.node[68].nic.mac1609_4 ReceivedUnicastPackets 0
scalar RSUExampleScenario.node[68].nic.mac1609_4 ReceivedBroadcasts 116
scalar RSUExampleScenario.node[68].nic.mac1609_4 SentPackets 120
scalar RSUExampleScenario.node[68].nic.mac1609_4 SentAcknowledgements 0
scalar RSUExampleScenario.node[68].nic.mac1609_4 SNIRLostPackets 5
scalar RSUExampleScenario.node[68].nic.mac1609_4 RXTXLostPackets 6
scalar RSUExampleScenario.node[68].nic.mac1609_4 TotalLostPackets 11
scalar RSUExampleScenario.node[68].nic.mac1609_4 DroppedPacketsInMac 0
scalar RSUExampleScenario.node[68].nic.mac1609_4 TooLittleTime 0
scalar RSUExampleScenario.node[68].nic.mac1609_4 TimesIntoBackoff 189
scalar RSUExampleScenario.node[68].nic.mac1609_4 SlotsBackoff 172
scalar RSUExampleScenario.node[68].nic.mac1609_4 NumInternalContention 0
scalar RSUExampleScenario.node[68].nic.mac1609_4 totalBusyTime 0.055568
scalar RSUExampleScenario.node[68].veinsmobility startTime 15
scalar RSUExampleScenario.node[68].veinsmobility totalTime 120
scalar RSUExampleScenario.node[68].veinsmobility stopTime 136
scalar RSUExampleScenario.node[68].veinsmobility minSpeed 1.4771120201563
scalar RSUExampleScenario.node[68].veinsmobility maxSpeed 14.583034907531
scalar RSUExampleScenario.node[68].veinsmobility totalDistance 1425.2415394151
scalar RSUExampleScenario.node[68].veinsmobility totalCO2Emission 391.18202815872
scalar RSUExampleScenario.node[273].appl generatedWSMs 82
scalar RSUExampleScenario.node[273].appl receivedWSMs 94
scalar RSUExampleScenario.node[273].appl generatedBSMs 0
scalar RSUExampleScenario.node[273].appl receivedBSMs 0
scalar RSUExampleScenario.node[273].appl generatedWSAs 0
scalar RSUExampleScenario.node[273].appl receivedWSAs 0
scalar RSUExampleScenario.node[273].nic.phy80211p busyTime 0.00026595121951219
scalar RSUExampleScenario.node[273].nic.mac1609_4 ReceivedUnicastPackets 0
scalar RSUExampleScenario.node[273].nic.mac1609_4 ReceivedBroadcasts 94
scalar RSUExampleScenario.node[273].nic.mac1609_4 SentPackets 81
scalar RSUExampleScenario.node[273].nic.mac1609_4 SentAcknowledgements 0
scalar RSUExampleScenario.node[273].nic.mac1609_4 SNIRLostPackets 0
scalar RSUExampleScenario.node[273].nic.mac1609_4 RXTXLostPackets 1
scalar RSUExampleScenario.node[273].nic.mac1609_4 TotalLostPackets 1
scalar RSUExampleScenario.node[273].nic.mac1609_4 DroppedPacketsInMac 0
scalar RSUExampleScenario.node[273].nic.mac1609_4 TooLittleTime 0
scalar RSUExampleScenario.node[273].nic.mac1609_4 TimesIntoBackoff 122
scalar RSUExampleScenario.node[273].nic.mac1609_4 SlotsBackoff 109
scalar RSUExampleScenario.node[273].nic.mac1609_4 NumInternalContention 0
scalar RSUExampleScenario.node[273].nic.mac1609_4 totalBusyTime 0.040681
scalar RSUExampleScenario.node[273].veinsmobility startTime 57
scalar RSUExampleScenario.node[273].veinsmobility totalTime 81
scalar RSUExampleScenario.node[273].veinsmobility stopTime 139
scalar RSUExampleScenario.node[273].veinsmobility minSpeed 2.3869457474677
scalar RSUExampleScenario.node[273].veinsmobility maxSpeed 11.542880982992
scalar RSUExampleScenario.node[273].veinsmobility totalDistance 809.44457117841
scalar RSUExampleScenario.node[273].veinsmobility totalCO2Emission 203.88617856896
scalar RSUExampleScenario.node[341].appl generatedWSMs 79
scalar RSUExampleScenario.node[341].appl receivedWSMs 73
scalar RSUExampleScenario.node[341].appl generatedBSMs 0
scalar RSUExampleScenario.node[341].appl receivedBSMs 0
scalar RSUExampleScenario.node[341].appl generatedWSAs 0
scalar RSUExampleScenario.node[341].appl receivedWSAs 0
scalar RSUExampleScenario.node[341].nic.phy80211p busyTime 0.00022612658227848
scalar RSUExampleScenario.node[341].nic.mac1609_4 ReceivedUnicastPackets 0
scalar RSUExampleScenario.node[341].nic.mac1609_4 ReceivedBroadcasts 73
scalar RSUExampleScenario.node[341].nic.mac1609_4 SentPackets 78
scalar RSUExampleScenario.node[341].nic.mac1609_4 SentAcknowledgements 0
scalar RSUExampleScenario.node[341].nic.mac1609_4 SNIRLostPackets 4
scalar RSUExampleScenario.node[341].nic.mac1609_4 RXTXLostPackets 1
scalar RSUExampleScenario.node[341].nic.mac1609_4 TotalLostPackets 5
scalar RSUExampleScenario.node[341].nic.mac1609_4 DroppedPacketsInMac 0
scalar RSUExampleScenario.node[341].nic.mac1609_4 TooLittleTime 0
scalar RSUExampleScenario.node[341].nic.mac1609_4 TimesIntoBackoff 127
scalar RSUExampleScenario.node[341].nic.mac1609_4 SlotsBackoff 124
scalar RSUExampleScenario.node[341].nic.mac1609_4 NumInternalContention 0
scalar RSUExampleScenario.node[341].nic.mac1609_4 totalBusyTime 0.035574
scalar RSUExampleScenario.node[341].veinsmobility startTime 71
scalar RSUExampleScenario.node[341].veinsmobility totalTime 78
scalar RSUExampleScenario.node[341].veinsmobility stopTime 150
scalar RSUExampleScenario.node[341].veinsmobility minSpeed 1.4856835641433
scalar RSUExampleScenario.node[341].veinsmobility maxSpeed 13.216594998413
scalar RSUExampleScenario.node[341].veinsmobility totalDistance 828.1529635506
scalar RSUExampleScenario.node[341].veinsmobility totalCO2Emission 235.0281116034
scalar RSUExampleScenario.node[90].appl generatedWSMs 181
scalar RSUExampleScenario.node[90].appl receivedWSMs 354
scalar RSUExampleScenario.node[90].appl generatedBSMs 0
scalar RSUExampleScenario.node[90].appl receivedBSMs 0
scalar RSUExampleScenario.node[90].appl generatedWSAs 0
scalar RSUExampleScenario.node[90].appl receivedWSAs 0
scalar RSUExampleScenario.node[90].nic.phy80211p busyTime 0.00056727741935484
scalar RSUExampleScenario.node[90].nic.mac1609_4 ReceivedUnicastPackets 0
scalar RSUExampleScenario.node[90].nic.mac1609_4 ReceivedBroadcasts 354
scalar RSUExampleScenario.node[90].nic.mac1609_4 SentPackets 180
scalar RSUExampleScenario.node[90].nic.mac1609_4 SentAcknowledgements 0
scalar RSUExampleScenario.node[90].nic.mac1609_4 SNIRLostPackets 22
scalar RSUExampleScenario.node[90].nic.mac1609_4 RXTXLostPackets 23
scalar RSUExampleScenario.node[90].nic.mac1609_4 TotalLostPackets 45
scalar RSUExampleScenario.node[90].nic.mac1609_4 DroppedPacketsInMac 0
scalar RSUExampleScenario.node[90].nic.mac1609_4 TooLittleTime 0
scalar RSUExampleScenario.node[90].nic.mac1609_4 TimesIntoBackoff 278
scalar RSUExampleScenario.node[90].nic.mac1609_4 SlotsBackoff 279
scalar RSUExampleScenario.node[90].nic.mac1609_4 NumInternalContention 0
scalar RSUExampleScenario.node[90].nic.mac1609_4 totalBusyTime 0.126388597994
scalar RSUExampleScenario.node[90].veinsmobility startTime 19
scalar RSUExampleScenario.node[90].veinsmobility totalTime 154
scalar RSUExampleScenario.node[90].veinsmobility stopTime 174
scalar RSUExampleScenario.node[90].veinsmobility minSpeed 2.5007992214756
scalar RSUExampleScenario.node[90].veinsmobility maxSpeed 23.191243545084
scalar RSUExampleScenario.node[90].veinsmobility totalDistance 2560.9818465886
scalar RSUExampleScenario.node[90].veinsmobility totalCO2Emission 525.90024435948
scalar RSUExampleScenario.node[782].appl generatedWSMs 30
scalar RSUExampleScenario.node[782].appl receivedWSMs 68
scalar RSUExampleScenario.node[782].appl generatedBSMs 0
scalar RSUExampleScenario.node[782].appl receivedBSMs 0
scalar RSUExampleScenario.node[782].appl generatedWSAs 0
scalar RSUExampleScenario.node[782].appl receivedWSAs 0
scalar RSUExampleScenario.node[782].nic.phy80211p busyTime 0.00056453333333333
scalar RSUExampleScenario.node[782].nic.mac1609_4 ReceivedUnicastPackets 0
scalar RSUExampleScenario.node[782].nic.mac1609_4 ReceivedBroadcasts 68
scalar RSUExampleScenario.node[782].nic.mac1609_4 SentPackets 29
scalar RSUExampleScenario.node[782].nic.mac1609_4 SentAcknowledgements 0
scalar RSUExampleScenario.node[782].nic.mac1609_4 SNIRLostPackets 5
scalar RSUExampleScenario.node[782].nic.mac1609_4 RXTXLostPackets 4
scalar RSUExampleScenario.node[782].nic.mac1609_4 TotalLostPackets 9
scalar RSUExampleScenario.node[782].nic.mac1609_4 DroppedPacketsInMac 0
scalar RSUExampleScenario.node[782].nic.mac1609_4 TooLittleTime 0
scalar RSUExampleScenario.node[782].nic.mac1609_4 TimesIntoBackoff 43
scalar RSUExampleScenario.node[782].nic.mac1609_4 SlotsBackoff 53
scalar RSUExampleScenario.node[782].nic.mac1609_4 NumInternalContention 0
scalar RSUExampleScenario.node[782].nic.mac1609_4 totalBusyTime 0.022765
scalar RSUExampleScenario.node[782].veinsmobility startTime 157
scalar RSUExampleScenario.node[782].veinsmobility totalTime 29
scalar RSUExampleScenario.node[782].veinsmobility stopTime 187
scalar RSUExampleScenario.node[782].veinsmobility minSpeed 1.3094487952068
scalar RSUExampleScenario.node[782].veinsmobility maxSpeed 12.224646249247
scalar RSUExampleScenario.node[782].veinsmobility totalDistance 295.44166801145
scalar RSUExampleScenario.node[782].veinsmobility totalCO2Emission 82.936830619516
scalar RSUExampleScenario.node[190].appl generatedWSMs 153
scalar RSUExampleScenario.node[190].appl receivedWSMs 272
scalar RSUExampleScenario.node[190].appl generatedBSMs 0
scalar RSUExampleScenario.node[190].appl receivedBSMs 0
scalar RSUExampleScenario.node[190].appl generatedWSAs 0
scalar RSUExampleScenario.node[190].appl receivedWSAs 0
scalar RSUExampleScenario.node[190].nic.phy80211p busyTime 0.00050342483660131
scalar RSUExampleScenario.node[190].nic.mac1609_4 ReceivedUnicastPackets 0
scalar RSUExampleScenario.node[190].nic.mac1609_4 ReceivedBroadcasts 272
scalar RSUExampleScenario.node[190].nic.mac1609_4 SentPackets 152
scalar RSUExampleScenario.node[190].nic.mac1609_4 SentAcknowledgements 0
scalar RSUExampleScenario.node[190].nic.mac1609_4 SNIRLostPackets 55
scalar RSUExampleScenario.node[190].nic.mac1609_4 RXTXLostPackets 18
scalar RSUExampleScenario.node[190].nic.mac1609_4 TotalLostPackets 73
scalar RSUExampleScenario.node[190].nic.mac1609_4 DroppedPacketsInMac 0
scalar RSUExampleScenario.node[190].nic.mac1609_4 TooLittleTime 0
scalar RSUExampleScenario.node[190].nic.mac1609_4 TimesIntoBackoff 231
scalar RSUExampleScenario.node[190].nic.mac1609_4 SlotsBackoff 238
scalar RSUExampleScenario.node[190].nic.mac1609_4 NumInternalContention 0
scalar RSUExampleScenario.node[190].nic.mac1609_4 totalBusyTime 0.105712
scalar RSUExampleScenario.node[190].veinsmobility startTime 39
scalar RSUExampleScenario.node[190].veinsmobility totalTime 152
scalar RSUExampleScenario.node[190].veinsmobility stopTime 192
scalar RSUExampleScenario.node[190].veinsmobility minSpeed 0
scalar RSUExampleScenario.node[190].veinsmobility maxSpeed 11.798591441869
scalar RSUExampleScenario.node[190].veinsmobility totalDistance 1085.0126726282
scalar RSUExampleScenario.node[190].veinsmobility totalCO2Emission 302.44247969544
scalar RSUExampleScenario.node[379].appl generatedWSMs 125
scalar RSUExampleScenario.node[379].appl receivedWSMs 513
scalar RSUExampleScenario.node[379].appl generatedBSMs 0
scalar RSUExampleScenario.node[379].appl receivedBSMs 0
scalar RSUExampleScenario.node[379].appl generatedWSAs 0
scalar RSUExampleScenario.node[379].appl receivedWSAs 0
scalar RSUExampleScenario.node[379].nic.phy80211p busyTime 0.00123424
scalar RSUExampleScenario.node[379].nic.mac1609_4 ReceivedUnicastPackets 0
scalar RSUExampleScenario.node[379].nic.mac1609_4 ReceivedBroadcasts 513
scalar RSUExampleScenario.node[379].nic.mac1609_4 SentPackets 124
scalar RSUExampleScenario.node[379].nic.mac1609_4 SentAcknowledgements 0
scalar RSUExampleScenario.node[379].nic.mac1609_4 SNIRLostPackets 147
scalar RSUExampleScenario.node[379].nic.mac1609_4 RXTXLostPackets 34
scalar RSUExampleScenario.node[379].nic.mac1609_4 TotalLostPackets 181
scalar RSUExampleScenario.node[379].nic.mac1609_4 DroppedPacketsInMac 0
scalar RSUExampleScenario.node[379].nic.mac1609_4 TooLittleTime 0
scalar RSUExampleScenario.node[379].nic.mac1609_4 TimesIntoBackoff 197
scalar RSUExampleScenario.node[379].nic.mac1609_4 SlotsBackoff 182
scalar RSUExampleScenario.node[379].nic.mac1609_4 NumInternalContention 0
scalar RSUExampleScenario.node[379].nic.mac1609_4 totalBusyTime 0.162085753257
scalar RSUExampleScenario.node[379].veinsmobility startTime 79
scalar RSUExampleScenario.node[379].veinsmobility totalTime 124
scalar RSUExampleScenario.node[379].veinsmobility stopTime 204
scalar RSUExampleScenario.node[379].veinsmobility minSpeed 0
scalar RSUExampleScenario.node[379].veinsmobility maxSpeed 16.285061752521
scalar RSUExampleScenario.node[379].veinsmobility totalDistance 1232.076186773
scalar RSUExampleScenario.node[379].veinsmobility totalCO2Emission 333.98821926873
scalar RSUExampleScenario.node[6].appl generatedWSMs 205
scalar RSUExampleScenario.node[6].appl receivedWSMs 198
scalar RSUExampleScenario.node[6].appl generatedBSMs 0
scalar RSUExampleScenario.node[6].appl receivedBSMs 0
scalar RSUExampleScenario.node[6].appl generatedWSAs 0
scalar RSUExampleScenario.node[6].appl receivedWSAs 0
scalar RSUExampleScenario.node[6].nic.phy80211p busyTime 0.00025463414634146
scalar RSUExampleScenario.node[6].nic.mac1609_4 ReceivedUnicastPackets 0
scalar RSUExampleScenario.node[6].nic.mac1609_4 ReceivedBroadcasts 198
scalar RSUExampleScenario.node[6].nic.mac1609_4 SentPackets 204
scalar RSUExampleScenario.node[6].nic.mac1609_4 SentAcknowledgements 0
scalar RSUExampleScenario.node[6].nic.mac1609_4 SNIRLostPackets 25
scalar RSUExampleScenario.node[6].nic.mac1609_4 RXTXLostPackets 4
scalar RSUExampleScenario.node[6].nic.mac1609_4 TotalLostPackets 29
scalar RSUExampleScenario.node[6].nic.mac1609_4 DroppedPacketsInMac 0
scalar RSUExampleScenario.node[6].nic.mac1609_4 TooLittleTime 0
scalar RSUExampleScenario.node[6].nic.mac1609_4 TimesIntoBackoff 313
scalar RSUExampleScenario.node[6].nic.mac1609_4 SlotsBackoff 326
scalar RSUExampleScenario.node[6].nic.mac1609_4 NumInternalContention 0
scalar RSUExampleScenario.node[6].nic.mac1609_4 totalBusyTime 0.096252
scalar RSUExampleScenario.node[6].veinsmobility startTime 2
scalar RSUExampleScenario.node[6].veinsmobility totalTime 204
scalar RSUExampleScenario.node[6].veinsmobility stopTime 207
scalar RSUExampleScenario.node[6].veinsmobility minSpeed 1.528189688758
scalar RSUExampleScenario.node[6].veinsmobility maxSpeed 16.426722899082
scalar RSUExampleScenario.node[6].veinsmobility totalDistance 2970.5524566073
scalar RSUExampleScenario.node[6].veinsmobility totalCO2Emission 638.21173748167
scalar RSUExampleScenario.node[66].appl generatedWSMs 200
scalar RSUExampleScenario.node[66].appl receivedWSMs 528
scalar RSUExampleScenario.node[66].appl generatedBSMs 0
scalar RSUExampleScenario.node[66].appl receivedBSMs 0
scalar RSUExampleScenario.node[66].appl generatedWSAs 0
scalar RSUExampleScenario.node[66].appl receivedWSAs 0
scalar RSUExampleScenario.node[66].nic.phy80211p busyTime 0.00076792
scalar RSUExampleScenario.node[66].nic.mac1609_4 ReceivedUnicastPackets 0
scalar RSUExampleScenario.node[66].nic.mac1609_4 ReceivedBroadcasts 528
scalar RSUExampleScenario.node[66].nic.mac1609_4 SentPackets 199
scalar RSUExampleScenario.node[66].nic.mac1609_4 SentAcknowledgements 0
scalar RSUExampleScenario.node[66].nic.mac1609_4 SNIRLostPackets 125
scalar RSUExampleScenario.node[66].nic.mac1609_4 RXTXLostPackets 40
scalar RSUExampleScenario.node[66].nic.mac1609_4 TotalLostPackets 165
scalar RSUExampleScenario.node[66].nic.mac1609_4 DroppedPacketsInMac 0
scalar RSUExampleScenario.node[66].nic.mac1609_4 TooLittleTime 0
scalar RSUExampleScenario.node[66].nic.mac1609_4 TimesIntoBackoff 310
scalar RSUExampleScenario.node[66].nic.mac1609_4 SlotsBackoff 286
scalar RSUExampleScenario.node[66].nic.mac1609_4 NumInternalContention 0
scalar RSUExampleScenario.node[66].nic.mac1609_4 totalBusyTime 0.185799
scalar RSUExampleScenario.node[66].veinsmobility startTime 14
scalar RSUExampleScenario.node[66].veinsmobility totalTime 199
scalar RSUExampleScenario.node[66].veinsmobility stopTime 214
scalar RSUExampleScenario.node[66].veinsmobility minSpeed 0.42826897374761
scalar RSUExampleScenario.node[66].veinsmobility maxSpeed 14.634260722644
scalar RSUExampleScenario.node[66].veinsmobility totalDistance 1763.3254833974
scalar RSUExampleScenario.node[66].veinsmobility totalCO2Emission 440.91055685554
scalar RSUExampleScenario.node[426].appl generatedWSMs 179
scalar RSUExampleScenario.node[426].appl receivedWSMs 412
scalar RSUExampleScenario.node[426].appl generatedBSMs 0
scalar RSUExampleScenario.node[426].appl receivedBSMs 0
scalar RSUExampleScenario.node[426].appl generatedWSAs 0
scalar RSUExampleScenario.node[426].appl receivedWSAs 0
scalar RSUExampleScenario.node[426].nic.phy80211p busyTime 0.00083620143884892
scalar RSUExampleScenario.node[426].nic.mac1609_4 ReceivedUnicastPackets 0
scalar RSUExampleScenario.node[426].nic.mac1609_4 ReceivedBroadcasts 412
scalar RSUExampleScenario.node[426].nic.mac1609_4 SentPackets 178
scalar RSUExampleScenario.node[426].nic.mac1609_4 SentAcknowledgements 0
scalar RSUExampleScenario.node[426].nic.mac1609_4 SNIRLostPackets 83
scalar RSUExampleScenario.node[426].nic.mac1609_4 RXTXLostPackets 31
scalar RSUExampleScenario.node[426].nic.mac1609_4 TotalLostPackets 114
scalar RSUExampleScenario.node[426].nic.mac1609_4 DroppedPacketsInMac 0
scalar RSUExampleScenario.node[426].nic.mac1609_4 TooLittleTime 4
scalar RSUExampleScenario.node[426].nic.mac1609_4 TimesIntoBackoff 270
scalar RSUExampleScenario.node[426].nic.mac1609_4 SlotsBackoff 263
scalar RSUExampleScenario.node[426].nic.mac1609_4 NumInternalContention 0
scalar RSUExampleScenario.node[426].nic.mac1609_4 totalBusyTime 0.146570179901
scalar RSUExampleScenario.node[426].veinsmobility startTime 89
scalar RSUExampleScenario.node[426].veinsmobility totalTime 138
scalar RSUExampleScenario.node[426].veinsmobility stopTime 228
scalar RSUExampleScenario.node[426].veinsmobility minSpeed 1.7584177860757
scalar RSUExampleScenario.node[426].veinsmobility maxSpeed 15.832851461049
scalar RSUExampleScenario.node[426].veinsmobility totalDistance 1903.8639045945
scalar RSUExampleScenario.node[426].veinsmobility totalCO2Emission 418.49492328395
scalar RSUExampleScenario.node[548].appl generatedWSMs 122
scalar RSUExampleScenario.node[548].appl receivedWSMs 323
scalar RSUExampleScenario.node[548].appl generatedBSMs 0
scalar RSUExampleScenario.node[548].appl receivedBSMs 0
scalar RSUExampleScenario.node[548].appl generatedWSAs 0
scalar RSUExampleScenario.node[548].appl receivedWSAs 0
scalar RSUExampleScenario.node[548].nic.phy80211p busyTime 0.00076065573770492
scalar RSUExampleScenario.node[548].nic.mac1609_4 ReceivedUnicastPackets 0
scalar RSUExampleScenario.node[548].nic.mac1609_4 ReceivedBroadcasts 323
scalar RSUExampleScenario.node[548].nic.mac1609_4 SentPackets 121
scalar RSUExampleScenario.node[548].nic.mac1609_4 SentAcknowledgements 0
scalar RSUExampleScenario.node[548].nic.mac1609_4 SNIRLostPackets 64
scalar RSUExampleScenario.node[548].nic.mac1609_4 RXTXLostPackets 24
scalar RSUExampleScenario.node[548].nic.mac1609_4 TotalLostPackets 88
scalar RSUExampleScenario.node[548].nic.mac1609_4 DroppedPacketsInMac 0
scalar RSUExampleScenario.node[548].nic.mac1609_4 TooLittleTime 0
scalar RSUExampleScenario.node[548].nic.mac1609_4 TimesIntoBackoff 189
scalar RSUExampleScenario.node[548].nic.mac1609_4 SlotsBackoff 190
scalar RSUExampleScenario.node[548].nic.mac1609_4 NumInternalContention 0
scalar RSUExampleScenario.node[548].nic.mac1609_4 totalBusyTime 0.112177
scalar RSUExampleScenario.node[548].veinsmobility startTime 112
scalar RSUExampleScenario.node[548].veinsmobility totalTime 121
scalar RSUExampleScenario.node[548].veinsmobility stopTime 234
scalar RSUExampleScenario.node[548].veinsmobility minSpeed 2.0212229679571
scalar RSUExampleScenario.node[548].veinsmobility maxSpeed 16.963304996463
scalar RSUExampleScenario.node[548].veinsmobility totalDistance 1187.2830973294
scalar RSUExampleScenario.node[548].veinsmobility totalCO2Emission 293.0267838863
scalar RSUExampleScenario.node[761].appl generatedWSMs 81
scalar RSUExampleScenario.node[761].appl receivedWSMs 210
scalar RSUExampleScenario.node[761].appl generatedBSMs 0
scalar RSUExampleScenario.node[761].appl receivedBSMs 0
scalar RSUExampleScenario.node[761].appl generatedWSAs 0
scalar RSUExampleScenario.node[761].appl receivedWSAs 0
scalar RSUExampleScenario.node[761].nic.phy80211p busyTime 0.00068740740740741
scalar RSUExampleScenario.node[761].nic.mac1609_4 ReceivedUnicastPackets 0
scalar RSUExampleScenario.node[761].nic.mac1609_4 ReceivedBroadcasts 210
scalar RSUExampleScenario.node[761].nic.mac1609_4 SentPackets 80
scalar RSUExampleScenario.node[761].nic.mac1609_4 SentAcknowledgements 0
scalar RSUExampleScenario.node[761].nic.mac1609_4 SNIRLostPackets 29
scalar RSUExampleScenario.node[761].nic.mac1609_4 RXTXLostPackets 5
scalar RSUExampleScenario.node[761].nic.mac1609_4 TotalLostPackets 34
scalar RSUExampleScenario.node[761].nic.mac1609_4 DroppedPacketsInMac 0
scalar RSUExampleScenario.node[761].nic.mac1609_4 TooLittleTime 0
scalar RSUExampleScenario.node[761].nic.mac1609_4 TimesIntoBackoff 115
scalar RSUExampleScenario.node[761].nic.mac1609_4 SlotsBackoff 136
scalar RSUExampleScenario.node[761].nic.mac1609_4 NumInternalContention 0
scalar RSUExampleScenario.node[761].nic.mac1609_4 totalBusyTime 0.07084
scalar RSUExampleScenario.node[761].veinsmobility startTime 153
scalar RSUExampleScenario.node[761].veinsmobility totalTime 80
scalar RSUExampleScenario.node[761].veinsmobility stopTime 234
scalar RSUExampleScenario.node[761].veinsmobility minSpeed 1.5620197588811
scalar RSUExampleScenario.node[761].veinsmobility maxSpeed 14.63672981606
scalar RSUExampleScenario.node[761].veinsmobility totalDistance 656.80712885801
scalar RSUExampleScenario.node[761].veinsmobility totalCO2Emission 177.42777395331
scalar RSUExampleScenario.node[563].appl generatedWSMs 123
scalar RSUExampleScenario.node[563].appl receivedWSMs 321
scalar RSUExampleScenario.node[563].appl generatedBSMs 0
scalar RSUExampleScenario.node[563].appl receivedBSMs 0
scalar RSUExampleScenario.node[563].appl generatedWSAs 0
scalar RSUExampleScenario.node[563].appl receivedWSAs 0
scalar RSUExampleScenario.node[563].nic.phy80211p busyTime 0.00076956097560975
scalar RSUExampleScenario.node[563].nic.mac1609_4 ReceivedUnicastPackets 0
scalar RSUExampleScenario.node[563].nic.mac1609_4 ReceivedBroadcasts 321
scalar RSUExampleScenario.node[563].nic.mac1609_4 SentPackets 122
scalar RSUExampleScenario.node[563].nic.mac1609_4 SentAcknowledgements 0
scalar RSUExampleScenario.node[563].nic.mac1609_4 SNIRLostPackets 85
scalar RSUExampleScenario.node[563].nic.mac1609_4 RXTXLostPackets 8
scalar RSUExampleScenario.node[563].nic.mac1609_4 TotalLostPackets 93
scalar RSUExampleScenario.node[563].nic.mac1609_4 DroppedPacketsInMac 0
scalar RSUExampleScenario.node[563].nic.mac1609_4 TooLittleTime 0
scalar RSUExampleScenario.node[563].nic.mac1609_4 TimesIntoBackoff 185
scalar RSUExampleScenario.node[563].nic.mac1609_4 SlotsBackoff 175
scalar RSUExampleScenario.node[563].nic.mac1609_4 NumInternalContention 0
scalar RSUExampleScenario.node[563].nic.mac1609_4 totalBusyTime 0.110786178482
scalar RSUExampleScenario.node[563].veinsmobility startTime 115
scalar RSUExampleScenario.node[563].veinsmobility totalTime 122
scalar RSUExampleScenario.node[563].veinsmobility stopTime 238
scalar RSUExampleScenario.node[563].veinsmobility minSpeed 0
scalar RSUExampleScenario.node[563].veinsmobility maxSpeed 14.858126190269
scalar RSUExampleScenario.node[563].veinsmobility totalDistance 1403.9702717096
scalar RSUExampleScenario.node[563].veinsmobility totalCO2Emission 367.10404738901
scalar RSUExampleScenario.node[175].appl generatedWSMs 249
scalar RSUExampleScenario.node[175].appl receivedWSMs 657
scalar RSUExampleScenario.node[175].appl generatedBSMs 0
scalar RSUExampleScenario.node[175].appl receivedBSMs 0
scalar RSUExampleScenario.node[175].appl generatedWSAs 0
scalar RSUExampleScenario.node[175].appl receivedWSAs 0
scalar RSUExampleScenario.node[175].nic.phy80211p busyTime 0.00097600000000001
scalar RSUExampleScenario.node[175].nic.mac1609_4 ReceivedUnicastPackets 0
scalar RSUExampleScenario.node[175].nic.mac1609_4 ReceivedBroadcasts 657
scalar RSUExampleScenario.node[175].nic.mac1609_4 SentPackets 248
scalar RSUExampleScenario.node[175].nic.mac1609_4 SentAcknowledgements 0
scalar RSUExampleScenario.node[175].nic.mac1609_4 SNIRLostPackets 195
scalar RSUExampleScenario.node[175].nic.mac1609_4 RXTXLostPackets 49
scalar RSUExampleScenario.node[175].nic.mac1609_4 TotalLostPackets 244
scalar RSUExampleScenario.node[175].nic.mac1609_4 DroppedPacketsInMac 0
scalar RSUExampleScenario.node[175].nic.mac1609_4 TooLittleTime 0
scalar RSUExampleScenario.node[175].nic.mac1609_4 TimesIntoBackoff 367
scalar RSUExampleScenario.node[175].nic.mac1609_4 SlotsBackoff 380
scalar RSUExampleScenario.node[175].nic.mac1609_4 NumInternalContention 0
scalar RSUExampleScenario.node[175].nic.mac1609_4 totalBusyTime 0.229762875641
scalar RSUExampleScenario.node[175].veinsmobility startTime 36
scalar RSUExampleScenario.node[175].veinsmobility totalTime 202
scalar RSUExampleScenario.node[175].veinsmobility stopTime 239
scalar RSUExampleScenario.node[175].veinsmobility minSpeed 0
scalar RSUExampleScenario.node[175].veinsmobility maxSpeed 13.487565307313
scalar RSUExampleScenario.node[175].veinsmobility totalDistance 1991.7656035153
scalar RSUExampleScenario.node[175].veinsmobility totalCO2Emission 544.69383345834
scalar RSUExampleScenario.node[257].appl generatedWSMs 185
scalar RSUExampleScenario.node[257].appl receivedWSMs 223
scalar RSUExampleScenario.node[257].appl generatedBSMs 0
scalar RSUExampleScenario.node[257].appl receivedBSMs 0
scalar RSUExampleScenario.node[257].appl generatedWSAs 0
scalar RSUExampleScenario.node[257].appl receivedWSAs 0
scalar RSUExampleScenario.node[257].nic.phy80211p busyTime 0.0003548972972973
scalar RSUExampleScenario.node[257].nic.mac1609_4 ReceivedUnicastPackets 0
scalar RSUExampleScenario.node[257].nic.mac1609_4 ReceivedBroadcasts 223
scalar RSUExampleScenario.node[257].nic.mac1609_4 SentPackets 184
scalar RSUExampleScenario.node[257].nic.mac1609_4 SentAcknowledgements 0
scalar RSUExampleScenario.node[257].nic.mac1609_4 SNIRLostPackets 46
scalar RSUExampleScenario.node[257].nic.mac1609_4 RXTXLostPackets 20
scalar RSUExampleScenario.node[257].nic.mac1609_4 TotalLostPackets 66
scalar RSUExampleScenario.node[257].nic.mac1609_4 DroppedPacketsInMac 0
scalar RSUExampleScenario.node[257].nic.mac1609_4 TooLittleTime 0
scalar RSUExampleScenario.node[257].nic.mac1609_4 TimesIntoBackoff 290
scalar RSUExampleScenario.node[257].nic.mac1609_4 SlotsBackoff 253
scalar RSUExampleScenario.node[257].nic.mac1609_4 NumInternalContention 0
scalar RSUExampleScenario.node[257].nic.mac1609_4 totalBusyTime 0.101568000059
scalar RSUExampleScenario.node[257].veinsmobility startTime 54
scalar RSUExampleScenario.node[257].veinsmobility totalTime 184
scalar RSUExampleScenario.node[257].veinsmobility stopTime 239
scalar RSUExampleScenario.node[257].veinsmobility minSpeed 1.3785321705509
scalar RSUExampleScenario.node[257].veinsmobility maxSpeed 13.513736255743
scalar RSUExampleScenario.node[257].veinsmobility totalDistance 2012.465513285
scalar RSUExampleScenario.node[257].veinsmobility totalCO2Emission 467.7410620859
scalar RSUExampleScenario.node[206].appl generatedWSMs 197
scalar RSUExampleScenario.node[206].appl receivedWSMs 355
scalar RSUExampleScenario.node[206].appl generatedBSMs 0
scalar RSUExampleScenario.node[206].appl receivedBSMs 0
scalar RSUExampleScenario.node[206].appl generatedWSAs 0
scalar RSUExampleScenario.node[206].appl receivedWSAs 0
scalar RSUExampleScenario.node[206].nic.phy80211p busyTime 0.00060060913705583
scalar RSUExampleScenario.node[206].nic.mac1609_4 ReceivedUnicastPackets 0
scalar RSUExampleScenario.node[206].nic.mac1609_4 ReceivedBroadcasts 355
scalar RSUExampleScenario.node[206].nic.mac1609_4 SentPackets 196
scalar RSUExampleScenario.node[206].nic.mac1609_4 SentAcknowledgements 0
scalar RSUExampleScenario.node[206].nic.mac1609_4 SNIRLostPackets 152
scalar RSUExampleScenario.node[206].nic.mac1609_4 RXTXLostPackets 20
scalar RSUExampleScenario.node[206].nic.mac1609_4 TotalLostPackets 172
scalar RSUExampleScenario.node[206].nic.mac1609_4 DroppedPacketsInMac 0
scalar RSUExampleScenario.node[206].nic.mac1609_4 TooLittleTime 0
scalar RSUExampleScenario.node[206].nic.mac1609_4 TimesIntoBackoff 312
scalar RSUExampleScenario.node[206].nic.mac1609_4 SlotsBackoff 301
scalar RSUExampleScenario.node[206].nic.mac1609_4 NumInternalContention 0
scalar RSUExampleScenario.node[206].nic.mac1609_4 totalBusyTime 0.142644168647
scalar RSUExampleScenario.node[206].veinsmobility startTime 43
scalar RSUExampleScenario.node[206].veinsmobility totalTime 196
scalar RSUExampleScenario.node[206].veinsmobility stopTime 240
scalar RSUExampleScenario.node[206].veinsmobility minSpeed 1.6233350923052
scalar RSUExampleScenario.node[206].veinsmobility maxSpeed 15.480286279389
scalar RSUExampleScenario.node[206].veinsmobility totalDistance 2590.5673974363
scalar RSUExampleScenario.node[206].veinsmobility totalCO2Emission 568.27742962057
scalar RSUExampleScenario.node[397].appl generatedWSMs 168
scalar RSUExampleScenario.node[397].appl receivedWSMs 704
scalar RSUExampleScenario.node[397].appl generatedBSMs 0
scalar RSUExampleScenario.node[397].appl receivedBSMs 0
scalar RSUExampleScenario.node[397].appl generatedWSAs 0
scalar RSUExampleScenario.node[397].appl receivedWSAs 0
scalar RSUExampleScenario.node[397].nic.phy80211p busyTime 0.0014251428571429
scalar RSUExampleScenario.node[397].nic.mac1609_4 ReceivedUnicastPackets 0
scalar RSUExampleScenario.node[397].nic.mac1609_4 ReceivedBroadcasts 704
scalar RSUExampleScenario.node[397].nic.mac1609_4 SentPackets 167
scalar RSUExampleScenario.node[397].nic.mac1609_4 SentAcknowledgements 0
scalar RSUExampleScenario.node[397].nic.mac1609_4 SNIRLostPackets 305
scalar RSUExampleScenario.node[397].nic.mac1609_4 RXTXLostPackets 60
scalar RSUExampleScenario.node[397].nic.mac1609_4 TotalLostPackets 365
scalar RSUExampleScenario.node[397].nic.mac1609_4 DroppedPacketsInMac 0
scalar RSUExampleScenario.node[397].nic.mac1609_4 TooLittleTime 0
scalar RSUExampleScenario.node[397].nic.mac1609_4 TimesIntoBackoff 251
scalar RSUExampleScenario.node[397].nic.mac1609_4 SlotsBackoff 284
scalar RSUExampleScenario.node[397].nic.mac1609_4 NumInternalContention 0
scalar RSUExampleScenario.node[397].nic.mac1609_4 totalBusyTime 0.235879039244
scalar RSUExampleScenario.node[397].veinsmobility startTime 82
scalar RSUExampleScenario.node[397].veinsmobility totalTime 167
scalar RSUExampleScenario.node[397].veinsmobility stopTime 250
scalar RSUExampleScenario.node[397].veinsmobility minSpeed 0
scalar RSUExampleScenario.node[397].veinsmobility maxSpeed 12.993906201655
scalar RSUExampleScenario.node[397].veinsmobility totalDistance 1436.5757019772
scalar RSUExampleScenario.node[397].veinsmobility totalCO2Emission 411.17370011919
scalar RSUExampleScenario.node[521].appl generatedWSMs 160
scalar RSUExampleScenario.node[521].appl receivedWSMs 517
scalar RSUExampleScenario.node[521].appl generatedBSMs 0
scalar RSUExampleScenario.node[521].appl receivedBSMs 0
scalar RSUExampleScenario.node[521].appl generatedWSAs 0
scalar RSUExampleScenario.node[521].appl receivedWSAs 0
scalar RSUExampleScenario.node[521].nic.phy80211p busyTime 0.0009504
scalar RSUExampleScenario.node[521].nic.mac1609_4 ReceivedUnicastPackets 0
scalar RSUExampleScenario.node[521].nic.mac1609_4 ReceivedBroadcasts 517
scalar RSUExampleScenario.node[521].nic.mac1609_4 SentPackets 159
scalar RSUExampleScenario.node[521].nic.mac1609_4 SentAcknowledgements 0
scalar RSUExampleScenario.node[521].nic.mac1609_4 SNIRLostPackets 77
scalar RSUExampleScenario.node[521].nic.mac1609_4 RXTXLostPackets 1
scalar RSUExampleScenario.node[521].nic.mac1609_4 TotalLostPackets 78
scalar RSUExampleScenario.node[521].nic.mac1609_4 DroppedPacketsInMac 0
scalar RSUExampleScenario.node[521].nic.mac1609_4 TooLittleTime 0
scalar RSUExampleScenario.node[521].nic.mac1609_4 TimesIntoBackoff 240
scalar RSUExampleScenario.node[521].nic.mac1609_4 SlotsBackoff 248
scalar RSUExampleScenario.node[521].nic.mac1609_4 NumInternalContention 0
scalar RSUExampleScenario.node[521].nic.mac1609_4 totalBusyTime 0.163951
scalar RSUExampleScenario.node[521].veinsmobility startTime 106
scalar RSUExampleScenario.node[521].veinsmobility totalTime 144
scalar RSUExampleScenario.node[521].veinsmobility stopTime 251
scalar RSUExampleScenario.node[521].veinsmobility minSpeed 0
scalar RSUExampleScenario.node[521].veinsmobility maxSpeed 16.124816286028
scalar RSUExampleScenario.node[521].veinsmobility totalDistance 946.82891405596
scalar RSUExampleScenario.node[521].veinsmobility totalCO2Emission 312.40873938804
scalar RSUExampleScenario.node[225].appl generatedWSMs 209
scalar RSUExampleScenario.node[225].appl receivedWSMs 472
scalar RSUExampleScenario.node[225].appl generatedBSMs 0
scalar RSUExampleScenario.node[225].appl receivedBSMs 0
scalar RSUExampleScenario.node[225].appl generatedWSAs 0
scalar RSUExampleScenario.node[225].appl receivedWSAs 0
scalar RSUExampleScenario.node[225].nic.phy80211p busyTime 0.00068156937799043
scalar RSUExampleScenario.node[225].nic.mac1609_4 ReceivedUnicastPackets 0
scalar RSUExampleScenario.node[225].nic.mac1609_4 ReceivedBroadcasts 472
scalar RSUExampleScenario.node[225].nic.mac1609_4 SentPackets 208
scalar RSUExampleScenario.node[225].nic.mac1609_4 SentAcknowledgements 0
scalar RSUExampleScenario.node[225].nic.mac1609_4 SNIRLostPackets 134
scalar RSUExampleScenario.node[225].nic.mac1609_4 RXTXLostPackets 30
scalar RSUExampleScenario.node[225].nic.mac1609_4 TotalLostPackets 164
scalar RSUExampleScenario.node[225].nic.mac1609_4 DroppedPacketsInMac 0
scalar RSUExampleScenario.node[225].nic.mac1609_4 TooLittleTime 0
scalar RSUExampleScenario.node[225].nic.mac1609_4 TimesIntoBackoff 317
scalar RSUExampleScenario.node[225].nic.mac1609_4 SlotsBackoff 309
scalar RSUExampleScenario.node[225].nic.mac1609_4 NumInternalContention 0
scalar RSUExampleScenario.node[225].nic.mac1609_4 totalBusyTime 0.172916525084
scalar RSUExampleScenario.node[225].veinsmobility startTime 47
scalar RSUExampleScenario.node[225].veinsmobility totalTime 208
scalar RSUExampleScenario.node[225].veinsmobility stopTime 256
scalar RSUExampleScenario.node[225].veinsmobility minSpeed 0
scalar RSUExampleScenario.node[225].veinsmobility maxSpeed 20.774799656286
scalar RSUExampleScenario.node[225].veinsmobility totalDistance 1931.586118251
scalar RSUExampleScenario.node[225].veinsmobility totalCO2Emission 554.77002704756
scalar RSUExampleScenario.node[731].appl generatedWSMs 109
scalar RSUExampleScenario.node[731].appl receivedWSMs 321
scalar RSUExampleScenario.node[731].appl generatedBSMs 0
scalar RSUExampleScenario.node[731].appl receivedBSMs 0
scalar RSUExampleScenario.node[731].appl generatedWSAs 0
scalar RSUExampleScenario.node[731].appl receivedWSAs 0
scalar RSUExampleScenario.node[731].nic.phy80211p busyTime 0.00087053211009174
scalar RSUExampleScenario.node[731].nic.mac1609_4 ReceivedUnicastPackets 0
scalar RSUExampleScenario.node[731].nic.mac1609_4 ReceivedBroadcasts 321
scalar RSUExampleScenario.node[731].nic.mac1609_4 SentPackets 108
scalar RSUExampleScenario.node[731].nic.mac1609_4 SentAcknowledgements 0
scalar RSUExampleScenario.node[731].nic.mac1609_4 SNIRLostPackets 81
scalar RSUExampleScenario.node[731].nic.mac1609_4 RXTXLostPackets 26
scalar RSUExampleScenario.node[731].nic.mac1609_4 TotalLostPackets 107
scalar RSUExampleScenario.node[731].nic.mac1609_4 DroppedPacketsInMac 0
scalar RSUExampleScenario.node[731].nic.mac1609_4 TooLittleTime 0
scalar RSUExampleScenario.node[731].nic.mac1609_4 TimesIntoBackoff 176
scalar RSUExampleScenario.node[731].nic.mac1609_4 SlotsBackoff 178
scalar RSUExampleScenario.node[731].nic.mac1609_4 NumInternalContention 0
scalar RSUExampleScenario.node[731].nic.mac1609_4 totalBusyTime 0.108220456969
scalar RSUExampleScenario.node[731].veinsmobility startTime 148
scalar RSUExampleScenario.node[731].veinsmobility totalTime 108
scalar RSUExampleScenario.node[731].veinsmobility stopTime 257
scalar RSUExampleScenario.node[731].veinsmobility minSpeed 0
scalar RSUExampleScenario.node[731].veinsmobility maxSpeed 16.652422015831
scalar RSUExampleScenario.node[731].veinsmobility totalDistance 1230.0045236727
scalar RSUExampleScenario.node[731].veinsmobility totalCO2Emission 309.41595918165
scalar RSUExampleScenario.node[301].appl generatedWSMs 198
scalar RSUExampleScenario.node[301].appl receivedWSMs 381
scalar RSUExampleScenario.node[301].appl generatedBSMs 0
scalar RSUExampleScenario.node[301].appl receivedBSMs 0
scalar RSUExampleScenario.node[301].appl generatedWSAs 0
scalar RSUExampleScenario.node[301].appl receivedWSAs 0
scalar RSUExampleScenario.node[301].nic.phy80211p busyTime 0.00055422222222222
scalar RSUExampleScenario.node[301].nic.mac1609_4 ReceivedUnicastPackets 0
scalar RSUExampleScenario.node[301].nic.mac1609_4 ReceivedBroadcasts 381
scalar RSUExampleScenario.node[301].nic.mac1609_4 SentPackets 197
scalar RSUExampleScenario.node[301].nic.mac1609_4 SentAcknowledgements 0
scalar RSUExampleScenario.node[301].nic.mac1609_4 SNIRLostPackets 84
scalar RSUExampleScenario.node[301].nic.mac1609_4 RXTXLostPackets 22
scalar RSUExampleScenario.node[301].nic.mac1609_4 TotalLostPackets 106
scalar RSUExampleScenario.node[301].nic.mac1609_4 DroppedPacketsInMac 0
scalar RSUExampleScenario.node[301].nic.mac1609_4 TooLittleTime 0
scalar RSUExampleScenario.node[301].nic.mac1609_4 TimesIntoBackoff 307
scalar RSUExampleScenario.node[301].nic.mac1609_4 SlotsBackoff 304
scalar RSUExampleScenario.node[301].nic.mac1609_4 NumInternalContention 0
scalar RSUExampleScenario.node[301].nic.mac1609_4 totalBusyTime 0.143341077087
scalar RSUExampleScenario.node[301].veinsmobility startTime 62
scalar RSUExampleScenario.node[301].veinsmobility totalTime 197
scalar RSUExampleScenario.node[301].veinsmobility stopTime 260
scalar RSUExampleScenario.node[301].veinsmobility minSpeed 2.1022753534373
scalar RSUExampleScenario.node[301].veinsmobility maxSpeed 12.874225065884
scalar RSUExampleScenario.node[301].veinsmobility totalDistance 1870.7193904469
scalar RSUExampleScenario.node[301].veinsmobility totalCO2Emission 458.18277191747
scalar RSUExampleScenario.node[888].appl generatedWSMs 83
scalar RSUExampleScenario.node[888].appl receivedWSMs 290
scalar RSUExampleScenario.node[888].appl generatedBSMs 0
scalar RSUExampleScenario.node[888].appl receivedBSMs 0
scalar RSUExampleScenario.node[888].appl generatedWSAs 0
scalar RSUExampleScenario.node[888].appl receivedWSAs 0
scalar RSUExampleScenario.node[888].nic.phy80211p busyTime 0.0010118554216867
scalar RSUExampleScenario.node[888].nic.mac1609_4 ReceivedUnicastPackets 0
scalar RSUExampleScenario.node[888].nic.mac1609_4 ReceivedBroadcasts 290
scalar RSUExampleScenario.node[888].nic.mac1609_4 SentPackets 82
scalar RSUExampleScenario.node[888].nic.mac1609_4 SentAcknowledgements 0
scalar RSUExampleScenario.node[888].nic.mac1609_4 SNIRLostPackets 66
scalar RSUExampleScenario.node[888].nic.mac1609_4 RXTXLostPackets 26
scalar RSUExampleScenario.node[888].nic.mac1609_4 TotalLostPackets 92
scalar RSUExampleScenario.node[888].nic.mac1609_4 DroppedPacketsInMac 0
scalar RSUExampleScenario.node[888].nic.mac1609_4 TooLittleTime 0
scalar RSUExampleScenario.node[888].nic.mac1609_4 TimesIntoBackoff 132
scalar RSUExampleScenario.node[888].nic.mac1609_4 SlotsBackoff 115
scalar RSUExampleScenario.node[888].nic.mac1609_4 NumInternalContention 0
scalar RSUExampleScenario.node[888].nic.mac1609_4 totalBusyTime 0.09381
scalar RSUExampleScenario.node[888].veinsmobility startTime 179
scalar RSUExampleScenario.node[888].veinsmobility totalTime 82
scalar RSUExampleScenario.node[888].veinsmobility stopTime 262
scalar RSUExampleScenario.node[888].veinsmobility minSpeed 1.6141850227257
scalar RSUExampleScenario.node[888].veinsmobility maxSpeed 13.998634519695
scalar RSUExampleScenario.node[888].veinsmobility totalDistance 664.88564707044
scalar RSUExampleScenario.node[888].veinsmobility totalCO2Emission 201.83936395113
scalar RSUExampleScenario.node[19].appl generatedWSMs 262
scalar RSUExampleScenario.node[19].appl receivedWSMs 86
scalar RSUExampleScenario.node[19].appl generatedBSMs 0
scalar RSUExampleScenario.node[19].appl receivedBSMs 0
scalar RSUExampleScenario.node[19].appl generatedWSAs 0
scalar RSUExampleScenario.node[19].appl receivedWSAs 0
scalar RSUExampleScenario.node[19].nic.phy80211p busyTime 7.6152671755725e-05
scalar RSUExampleScenario.node[19].nic.mac1609_4 ReceivedUnicastPackets 0
scalar RSUExampleScenario.node[19].nic.mac1609_4 ReceivedBroadcasts 86
scalar RSUExampleScenario.node[19].nic.mac1609_4 SentPackets 261
scalar RSUExampleScenario.node[19].nic.mac1609_4 SentAcknowledgements 0
scalar RSUExampleScenario.node[19].nic.mac1609_4 SNIRLostPackets 0
scalar RSUExampleScenario.node[19].nic.mac1609_4 RXTXLostPackets 3
scalar RSUExampleScenario.node[19].nic.mac1609_4 TotalLostPackets 3
scalar RSUExampleScenario.node[19].nic.mac1609_4 DroppedPacketsInMac 0
scalar RSUExampleScenario.node[19].nic.mac1609_4 TooLittleTime 0
scalar RSUExampleScenario.node[19].nic.mac1609_4 TimesIntoBackoff 407
scalar RSUExampleScenario.node[19].nic.mac1609_4 SlotsBackoff 376
scalar RSUExampleScenario.node[19].nic.mac1609_4 NumInternalContention 0
scalar RSUExampleScenario.node[19].nic.mac1609_4 totalBusyTime 0.080765
scalar RSUExampleScenario.node[19].veinsmobility startTime 4
scalar RSUExampleScenario.node[19].veinsmobility totalTime 261
scalar RSUExampleScenario.node[19].veinsmobility stopTime 266
scalar RSUExampleScenario.node[19].veinsmobility minSpeed 2.1050269616535
scalar RSUExampleScenario.node[19].veinsmobility maxSpeed 16.384533228963
scalar RSUExampleScenario.node[19].veinsmobility totalDistance 3670.9089207088
scalar RSUExampleScenario.node[19].veinsmobility totalCO2Emission 791.31489626371
scalar RSUExampleScenario.node[458].appl generatedWSMs 171
scalar RSUExampleScenario.node[458].appl receivedWSMs 203
scalar RSUExampleScenario.node[458].appl generatedBSMs 0
scalar RSUExampleScenario.node[458].appl receivedBSMs 0
scalar RSUExampleScenario.node[458].appl generatedWSAs 0
scalar RSUExampleScenario.node[458].appl receivedWSAs 0
scalar RSUExampleScenario.node[458].nic.phy80211p busyTime 0.00029576608187135
scalar RSUExampleScenario.node[458].nic.mac1609_4 ReceivedUnicastPackets 0
scalar RSUExampleScenario.node[458].nic.mac1609_4 ReceivedBroadcasts 203
scalar RSUExampleScenario.node[458].nic.mac1609_4 SentPackets 170
scalar RSUExampleScenario.node[458].nic.mac1609_4 SentAcknowledgements 0
scalar RSUExampleScenario.node[458].nic.mac1609_4 SNIRLostPackets 13
scalar RSUExampleScenario.node[458].nic.mac1609_4 RXTXLostPackets 10
scalar RSUExampleScenario.node[458].nic.mac1609_4 TotalLostPackets 23
scalar RSUExampleScenario.node[458].nic.mac1609_4 DroppedPacketsInMac 0
scalar RSUExampleScenario.node[458].nic.mac1609_4 TooLittleTime 0
scalar RSUExampleScenario.node[458].nic.mac1609_4 TimesIntoBackoff 273
scalar RSUExampleScenario.node[458].nic.mac1609_4 SlotsBackoff 261
scalar RSUExampleScenario.node[458].nic.mac1609_4 NumInternalContention 0
scalar RSUExampleScenario.node[458].nic.mac1609_4 totalBusyTime 0.08833
scalar RSUExampleScenario.node[458].veinsmobility startTime 95
scalar RSUExampleScenario.node[458].veinsmobility totalTime 170
scalar RSUExampleScenario.node[458].veinsmobility stopTime 266
scalar RSUExampleScenario.node[458].veinsmobility minSpeed 2.2171612105565
scalar RSUExampleScenario.node[458].veinsmobility maxSpeed 16.427651995614
scalar RSUExampleScenario.node[458].veinsmobility totalDistance 2352.3340696647
scalar RSUExampleScenario.node[458].veinsmobility totalCO2Emission 559.44215614868
scalar RSUExampleScenario.node[485].appl generatedWSMs 167
scalar RSUExampleScenario.node[485].appl receivedWSMs 377
scalar RSUExampleScenario.node[485].appl generatedBSMs 0
scalar RSUExampleScenario.node[485].appl receivedBSMs 0
scalar RSUExampleScenario.node[485].appl generatedWSAs 0
scalar RSUExampleScenario.node[485].appl receivedWSAs 0
scalar RSUExampleScenario.node[485].nic.phy80211p busyTime 0.00059319760479042
scalar RSUExampleScenario.node[485].nic.mac1609_4 ReceivedUnicastPackets 0
scalar RSUExampleScenario.node[485].nic.mac1609_4 ReceivedBroadcasts 377
scalar RSUExampleScenario.node[485].nic.mac1609_4 SentPackets 166
scalar RSUExampleScenario.node[485].nic.mac1609_4 SentAcknowledgements 0
scalar RSUExampleScenario.node[485].nic.mac1609_4 SNIRLostPackets 45
scalar RSUExampleScenario.node[485].nic.mac1609_4 RXTXLostPackets 24
scalar RSUExampleScenario.node[485].nic.mac1609_4 TotalLostPackets 69
scalar RSUExampleScenario.node[485].nic.mac1609_4 DroppedPacketsInMac 0
scalar RSUExampleScenario.node[485].nic.mac1609_4 TooLittleTime 0
scalar RSUExampleScenario.node[485].nic.mac1609_4 TimesIntoBackoff 259
scalar RSUExampleScenario.node[485].nic.mac1609_4 SlotsBackoff 246
scalar RSUExampleScenario.node[485].nic.mac1609_4 NumInternalContention 0
scalar RSUExampleScenario.node[485].nic.mac1609_4 totalBusyTime 0.131246175876
scalar RSUExampleScenario.node[485].veinsmobility startTime 100
scalar RSUExampleScenario.node[485].veinsmobility totalTime 166
scalar RSUExampleScenario.node[485].veinsmobility stopTime 267
scalar RSUExampleScenario.node[485].veinsmobility minSpeed 2.4506584286923
scalar RSUExampleScenario.node[485].veinsmobility maxSpeed 16.865543987531
scalar RSUExampleScenario.node[485].veinsmobility totalDistance 2093.3279756265
scalar RSUExampleScenario.node[485].veinsmobility totalCO2Emission 546.1944847317
scalar RSUExampleScenario.node[167].appl generatedWSMs 249
scalar RSUExampleScenario.node[167].appl receivedWSMs 316
scalar RSUExampleScenario.node[167].appl generatedBSMs 0
scalar RSUExampleScenario.node[167].appl receivedBSMs 0
scalar RSUExampleScenario.node[167].appl generatedWSAs 0
scalar RSUExampleScenario.node[167].appl receivedWSAs 0
scalar RSUExampleScenario.node[167].nic.phy80211p busyTime 0.00036231489361702
scalar RSUExampleScenario.node[167].nic.mac1609_4 ReceivedUnicastPackets 0
scalar RSUExampleScenario.node[167].nic.mac1609_4 ReceivedBroadcasts 316
scalar RSUExampleScenario.node[167].nic.mac1609_4 SentPackets 248
scalar RSUExampleScenario.node[167].nic.mac1609_4 SentAcknowledgements 0
scalar RSUExampleScenario.node[167].nic.mac1609_4 SNIRLostPackets 44
scalar RSUExampleScenario.node[167].nic.mac1609_4 RXTXLostPackets 20
scalar RSUExampleScenario.node[167].nic.mac1609_4 TotalLostPackets 64
scalar RSUExampleScenario.node[167].nic.mac1609_4 DroppedPacketsInMac 0
scalar RSUExampleScenario.node[167].nic.mac1609_4 TooLittleTime 0
scalar RSUExampleScenario.node[167].nic.mac1609_4 TimesIntoBackoff 376
scalar RSUExampleScenario.node[167].nic.mac1609_4 SlotsBackoff 389
scalar RSUExampleScenario.node[167].nic.mac1609_4 NumInternalContention 0
scalar RSUExampleScenario.node[167].nic.mac1609_4 totalBusyTime 0.136896
scalar RSUExampleScenario.node[167].veinsmobility startTime 34
scalar RSUExampleScenario.node[167].veinsmobility totalTime 234
scalar RSUExampleScenario.node[167].veinsmobility stopTime 269
scalar RSUExampleScenario.node[167].veinsmobility minSpeed 0
scalar RSUExampleScenario.node[167].veinsmobility maxSpeed 15.610526640795
scalar RSUExampleScenario.node[167].veinsmobility totalDistance 2702.148952946
scalar RSUExampleScenario.node[167].veinsmobility totalCO2Emission 713.88089009947
scalar RSUExampleScenario.node[215].appl generatedWSMs 274
scalar RSUExampleScenario.node[215].appl receivedWSMs 492
scalar RSUExampleScenario.node[215].appl generatedBSMs 0
scalar RSUExampleScenario.node[215].appl receivedBSMs 0
scalar RSUExampleScenario.node[215].appl generatedWSAs 0
scalar RSUExampleScenario.node[215].appl receivedWSAs 0
scalar RSUExampleScenario.node[215].nic.phy80211p busyTime 0.00068604291845494
scalar RSUExampleScenario.node[215].nic.mac1609_4 ReceivedUnicastPackets 0
scalar RSUExampleScenario.node[215].nic.mac1609_4 ReceivedBroadcasts 492
scalar RSUExampleScenario.node[215].nic.mac1609_4 SentPackets 273
scalar RSUExampleScenario.node[215].nic.mac1609_4 SentAcknowledgements 0
scalar RSUExampleScenario.node[215].nic.mac1609_4 SNIRLostPackets 196
scalar RSUExampleScenario.node[215].nic.mac1609_4 RXTXLostPackets 14
scalar RSUExampleScenario.node[215].nic.mac1609_4 TotalLostPackets 210
scalar RSUExampleScenario.node[215].nic.mac1609_4 DroppedPacketsInMac 0
scalar RSUExampleScenario.node[215].nic.mac1609_4 TooLittleTime 0
scalar RSUExampleScenario.node[215].nic.mac1609_4 TimesIntoBackoff 429
scalar RSUExampleScenario.node[215].nic.mac1609_4 SlotsBackoff 418
scalar RSUExampleScenario.node[215].nic.mac1609_4 NumInternalContention 0
scalar RSUExampleScenario.node[215].nic.mac1609_4 totalBusyTime 0.196313211957
scalar RSUExampleScenario.node[215].veinsmobility startTime 45
scalar RSUExampleScenario.node[215].veinsmobility totalTime 232
scalar RSUExampleScenario.node[215].veinsmobility stopTime 278
scalar RSUExampleScenario.node[215].veinsmobility minSpeed 0
scalar RSUExampleScenario.node[215].veinsmobility maxSpeed 14.238540987173
scalar RSUExampleScenario.node[215].veinsmobility totalDistance 2490.2387408745
scalar RSUExampleScenario.node[215].veinsmobility totalCO2Emission 650.26774634602
scalar RSUExampleScenario.node[72].appl generatedWSMs 264
scalar RSUExampleScenario.node[72].appl receivedWSMs 480
scalar RSUExampleScenario.node[72].appl generatedBSMs 0
scalar RSUExampleScenario.node[72].appl receivedBSMs 0
scalar RSUExampleScenario.node[72].appl generatedWSAs 0
scalar RSUExampleScenario.node[72].appl receivedWSAs 0
scalar RSUExampleScenario.node[72].nic.phy80211p busyTime 0.00044290909090909
scalar RSUExampleScenario.node[72].nic.mac1609_4 ReceivedUnicastPackets 0
scalar RSUExampleScenario.node[72].nic.mac1609_4 ReceivedBroadcasts 480
scalar RSUExampleScenario.node[72].nic.mac1609_4 SentPackets 263
scalar RSUExampleScenario.node[72].nic.mac1609_4 SentAcknowledgements 0
scalar RSUExampleScenario.node[72].nic.mac1609_4 SNIRLostPackets 23
scalar RSUExampleScenario.node[72].nic.mac1609_4 RXTXLostPackets 26
scalar RSUExampleScenario.node[72].nic.mac1609_4 TotalLostPackets 49
scalar RSUExampleScenario.node[72].nic.mac1609_4 DroppedPacketsInMac 0
scalar RSUExampleScenario.node[72].nic.mac1609_4 TooLittleTime 0
scalar RSUExampleScenario.node[72].nic.mac1609_4 TimesIntoBackoff 402
scalar RSUExampleScenario.node[72].nic.mac1609_4 SlotsBackoff 398
scalar RSUExampleScenario.node[72].nic.mac1609_4 NumInternalContention 0
scalar RSUExampleScenario.node[72].nic.mac1609_4 totalBusyTime 0.175191
scalar RSUExampleScenario.node[72].veinsmobility startTime 15
scalar RSUExampleScenario.node[72].veinsmobility totalTime 263
scalar RSUExampleScenario.node[72].veinsmobility stopTime 279
scalar RSUExampleScenario.node[72].veinsmobility minSpeed 0
scalar RSUExampleScenario.node[72].veinsmobility maxSpeed 14.050527593537
scalar RSUExampleScenario.node[72].veinsmobility totalDistance 2148.2426882736
scalar RSUExampleScenario.node[72].veinsmobility totalCO2Emission 545.25557041522
scalar RSUExampleScenario.node[809].appl generatedWSMs 118
scalar RSUExampleScenario.node[809].appl receivedWSMs 344
scalar RSUExampleScenario.node[809].appl generatedBSMs 0
scalar RSUExampleScenario.node[809].appl receivedBSMs 0
scalar RSUExampleScenario.node[809].appl generatedWSAs 0
scalar RSUExampleScenario.node[809].appl receivedWSAs 0
scalar RSUExampleScenario.node[809].nic.phy80211p busyTime 0.00088474576271186
scalar RSUExampleScenario.node[809].nic.mac1609_4 ReceivedUnicastPackets 0
scalar RSUExampleScenario.node[809].nic.mac1609_4 ReceivedBroadcasts 344
scalar RSUExampleScenario.node[809].nic.mac1609_4 SentPackets 117
scalar RSUExampleScenario.node[809].nic.mac1609_4 SentAcknowledgements 0
scalar RSUExampleScenario.node[809].nic.mac1609_4 SNIRLostPackets 101
scalar RSUExampleScenario.node[809].nic.mac1609_4 RXTXLostPackets 31
scalar RSUExampleScenario.node[809].nic.mac1609_4 TotalLostPackets 132
scalar RSUExampleScenario.node[809].nic.mac1609_4 DroppedPacketsInMac 0
scalar RSUExampleScenario.node[809].nic.mac1609_4 TooLittleTime 0
scalar RSUExampleScenario.node[809].nic.mac1609_4 TimesIntoBackoff 189
scalar RSUExampleScenario.node[809].nic.mac1609_4 SlotsBackoff 180
scalar RSUExampleScenario.node[809].nic.mac1609_4 NumInternalContention 0
scalar RSUExampleScenario.node[809].nic.mac1609_4 totalBusyTime 0.117045530432
scalar RSUExampleScenario.node[809].veinsmobility startTime 162
scalar RSUExampleScenario.node[809].veinsmobility totalTime 117
scalar RSUExampleScenario.node[809].veinsmobility stopTime 280
scalar RSUExampleScenario.node[809].veinsmobility minSpeed 2.103899150854
scalar RSUExampleScenario.node[809].veinsmobility maxSpeed 14.054072925238
scalar RSUExampleScenario.node[809].veinsmobility totalDistance 1093.5976507981
scalar RSUExampleScenario.node[809].veinsmobility totalCO2Emission 263.64218849213
scalar RSUExampleScenario.node[406].appl generatedWSMs 205
scalar RSUExampleScenario.node[406].appl receivedWSMs 592
scalar RSUExampleScenario.node[406].appl generatedBSMs 0
scalar RSUExampleScenario.node[406].appl receivedBSMs 0
scalar RSUExampleScenario.node[406].appl generatedWSAs 0
scalar RSUExampleScenario.node[406].appl receivedWSAs 0
scalar RSUExampleScenario.node[406].nic.phy80211p busyTime 0.00084085853658537
scalar RSUExampleScenario.node[406].nic.mac1609_4 ReceivedUnicastPackets 0
scalar RSUExampleScenario.node[406].nic.mac1609_4 ReceivedBroadcasts 592
scalar RSUExampleScenario.node[406].nic.mac1609_4 SentPackets 204
scalar RSUExampleScenario.node[406].nic.mac1609_4 SentAcknowledgements 0
scalar RSUExampleScenario.node[406].nic.mac1609_4 SNIRLostPackets 138
scalar RSUExampleScenario.node[406].nic.mac1609_4 RXTXLostPackets 40
scalar RSUExampleScenario.node[406].nic.mac1609_4 TotalLostPackets 178
scalar RSUExampleScenario.node[406].nic.mac1609_4 DroppedPacketsInMac 0
scalar RSUExampleScenario.node[406].nic.mac1609_4 TooLittleTime 0
scalar RSUExampleScenario.node[406].nic.mac1609_4 TimesIntoBackoff 324
scalar RSUExampleScenario.node[406].nic.mac1609_4 SlotsBackoff 302
scalar RSUExampleScenario.node[406].nic.mac1609_4 NumInternalContention 0
scalar RSUExampleScenario.node[406].nic.mac1609_4 totalBusyTime 0.20158
scalar RSUExampleScenario.node[406].veinsmobility startTime 84
scalar RSUExampleScenario.node[406].veinsmobility totalTime 204
scalar RSUExampleScenario.node[406].veinsmobility stopTime 289
scalar RSUExampleScenario.node[406].veinsmobility minSpeed 0
scalar RSUExampleScenario.node[406].veinsmobility maxSpeed 12.59014653219
scalar RSUExampleScenario.node[406].veinsmobility totalDistance 1249.2023955322
scalar RSUExampleScenario.node[406].veinsmobility totalCO2Emission 402.69000414272
scalar RSUExampleScenario.node[67].appl generatedWSMs 322
scalar RSUExampleScenario.node[67].appl receivedWSMs 724
scalar RSUExampleScenario.node[67].appl generatedBSMs 0
scalar RSUExampleScenario.node[67].appl receivedBSMs 0
scalar RSUExampleScenario.node[67].appl generatedWSAs 0
scalar RSUExampleScenario.node[67].appl receivedWSAs 0
scalar RSUExampleScenario.node[67].nic.phy80211p busyTime 0.00074625270758124
scalar RSUExampleScenario.node[67].nic.mac1609_4 ReceivedUnicastPackets 0
scalar RSUExampleScenario.node[67].nic.mac1609_4 ReceivedBroadcasts 724
scalar RSUExampleScenario.node[67].nic.mac1609_4 SentPackets 321
scalar RSUExampleScenario.node[67].nic.mac1609_4 SentAcknowledgements 0
scalar RSUExampleScenario.node[67].nic.mac1609_4 SNIRLostPackets 160
scalar RSUExampleScenario.node[67].nic.mac1609_4 RXTXLostPackets 46
scalar RSUExampleScenario.node[67].nic.mac1609_4 TotalLostPackets 206
scalar RSUExampleScenario.node[67].nic.mac1609_4 DroppedPacketsInMac 0
scalar RSUExampleScenario.node[67].nic.mac1609_4 TooLittleTime 0
scalar RSUExampleScenario.node[67].nic.mac1609_4 TimesIntoBackoff 486
scalar RSUExampleScenario.node[67].nic.mac1609_4 SlotsBackoff 476
scalar RSUExampleScenario.node[67].nic.mac1609_4 NumInternalContention 0
scalar RSUExampleScenario.node[67].nic.mac1609_4 totalBusyTime 0.258537
scalar RSUExampleScenario.node[67].veinsmobility startTime 14
scalar RSUExampleScenario.node[67].veinsmobility totalTime 276
scalar RSUExampleScenario.node[67].veinsmobility stopTime 291
scalar RSUExampleScenario.node[67].veinsmobility minSpeed 0
scalar RSUExampleScenario.node[67].veinsmobility maxSpeed 15.380862986033
scalar RSUExampleScenario.node[67].veinsmobility totalDistance 3269.406458198
scalar RSUExampleScenario.node[67].veinsmobility totalCO2Emission 785.21095718574
scalar RSUExampleScenario.node[425].appl generatedWSMs 204
scalar RSUExampleScenario.node[425].appl receivedWSMs 365
scalar RSUExampleScenario.node[425].appl generatedBSMs 0
scalar RSUExampleScenario.node[425].appl receivedBSMs 0
scalar RSUExampleScenario.node[425].appl generatedWSAs 0
scalar RSUExampleScenario.node[425].appl receivedWSAs 0
scalar RSUExampleScenario.node[425].nic.phy80211p busyTime 0.00047423529411765
scalar RSUExampleScenario.node[425].nic.mac1609_4 ReceivedUnicastPackets 0
scalar RSUExampleScenario.node[425].nic.mac1609_4 ReceivedBroadcasts 365
scalar RSUExampleScenario.node[425].nic.mac1609_4 SentPackets 203
scalar RSUExampleScenario.node[425].nic.mac1609_4 SentAcknowledgements 0
scalar RSUExampleScenario.node[425].nic.mac1609_4 SNIRLostPackets 48
scalar RSUExampleScenario.node[425].nic.mac1609_4 RXTXLostPackets 17
scalar RSUExampleScenario.node[425].nic.mac1609_4 TotalLostPackets 65
scalar RSUExampleScenario.node[425].nic.mac1609_4 DroppedPacketsInMac 0
scalar RSUExampleScenario.node[425].nic.mac1609_4 TooLittleTime 0
scalar RSUExampleScenario.node[425].nic.mac1609_4 TimesIntoBackoff 318
scalar RSUExampleScenario.node[425].nic.mac1609_4 SlotsBackoff 307
scalar RSUExampleScenario.node[425].nic.mac1609_4 NumInternalContention 0
scalar RSUExampleScenario.node[425].nic.mac1609_4 totalBusyTime 0.137093819567
scalar RSUExampleScenario.node[425].veinsmobility startTime 88
scalar RSUExampleScenario.node[425].veinsmobility totalTime 203
scalar RSUExampleScenario.node[425].veinsmobility stopTime 292
scalar RSUExampleScenario.node[425].veinsmobility minSpeed 2.5088277396746
scalar RSUExampleScenario.node[425].veinsmobility maxSpeed 13.848118776656
scalar RSUExampleScenario.node[425].veinsmobility totalDistance 2243.9444547507
scalar RSUExampleScenario.node[425].veinsmobility totalCO2Emission 532.59670880192
scalar RSUExampleScenario.node[198].appl generatedWSMs 311
scalar RSUExampleScenario.node[198].appl receivedWSMs 783
scalar RSUExampleScenario.node[198].appl generatedBSMs 0
scalar RSUExampleScenario.node[198].appl receivedBSMs 0
scalar RSUExampleScenario.node[198].appl generatedWSAs 0
scalar RSUExampleScenario.node[198].appl receivedWSAs 0
scalar RSUExampleScenario.node[198].nic.phy80211p busyTime 0.00076935968379448
scalar RSUExampleScenario.node[198].nic.mac1609_4 ReceivedUnicastPackets 0
scalar RSUExampleScenario.node[198].nic.mac1609_4 ReceivedBroadcasts 783
scalar RSUExampleScenario.node[198].nic.mac1609_4 SentPackets 310
scalar RSUExampleScenario.node[198].nic.mac1609_4 SentAcknowledgements 0
scalar RSUExampleScenario.node[198].nic.mac1609_4 SNIRLostPackets 51
scalar RSUExampleScenario.node[198].nic.mac1609_4 RXTXLostPackets 49
scalar RSUExampleScenario.node[198].nic.mac1609_4 TotalLostPackets 100
scalar RSUExampleScenario.node[198].nic.mac1609_4 DroppedPacketsInMac 0
scalar RSUExampleScenario.node[198].nic.mac1609_4 TooLittleTime 0
scalar RSUExampleScenario.node[198].nic.mac1609_4 TimesIntoBackoff 455
scalar RSUExampleScenario.node[198].nic.mac1609_4 SlotsBackoff 508
scalar RSUExampleScenario.node[198].nic.mac1609_4 NumInternalContention 0
scalar RSUExampleScenario.node[198].nic.mac1609_4 totalBusyTime 0.257830454557
scalar RSUExampleScenario.node[198].veinsmobility startTime 41
scalar RSUExampleScenario.node[198].veinsmobility totalTime 252
scalar RSUExampleScenario.node[198].veinsmobility stopTime 294
scalar RSUExampleScenario.node[198].veinsmobility minSpeed 0
scalar RSUExampleScenario.node[198].veinsmobility maxSpeed 18.222803726775
scalar RSUExampleScenario.node[198].veinsmobility totalDistance 3008.9475251788
scalar RSUExampleScenario.node[198].veinsmobility totalCO2Emission 668.55790048281
scalar RSUExampleScenario.node[271].appl generatedWSMs 240
scalar RSUExampleScenario.node[271].appl receivedWSMs 761
scalar RSUExampleScenario.node[271].appl generatedBSMs 0
scalar RSUExampleScenario.node[271].appl receivedBSMs 0
scalar RSUExampleScenario.node[271].appl generatedWSAs 0
scalar RSUExampleScenario.node[271].appl receivedWSAs 0
scalar RSUExampleScenario.node[271].nic.phy80211p busyTime 0.0010507666666667
scalar RSUExampleScenario.node[271].nic.mac1609_4 ReceivedUnicastPackets 0
scalar RSUExampleScenario.node[271].nic.mac1609_4 ReceivedBroadcasts 761
scalar RSUExampleScenario.node[271].nic.mac1609_4 SentPackets 239
scalar RSUExampleScenario.node[271].nic.mac1609_4 SentAcknowledgements 0
scalar RSUExampleScenario.node[271].nic.mac1609_4 SNIRLostPackets 305
scalar RSUExampleScenario.node[271].nic.mac1609_4 RXTXLostPackets 70
scalar RSUExampleScenario.node[271].nic.mac1609_4 TotalLostPackets 375
scalar RSUExampleScenario.node[271].nic.mac1609_4 DroppedPacketsInMac 0
scalar RSUExampleScenario.node[271].nic.mac1609_4 TooLittleTime 0
scalar RSUExampleScenario.node[271].nic.mac1609_4 TimesIntoBackoff 375
scalar RSUExampleScenario.node[271].nic.mac1609_4 SlotsBackoff 348
scalar RSUExampleScenario.node[271].nic.mac1609_4 NumInternalContention 0
scalar RSUExampleScenario.node[271].nic.mac1609_4 totalBusyTime 0.263275803933
scalar RSUExampleScenario.node[271].veinsmobility startTime 57
scalar RSUExampleScenario.node[271].veinsmobility totalTime 239
scalar RSUExampleScenario.node[271].veinsmobility stopTime 297
scalar RSUExampleScenario.node[271].veinsmobility minSpeed 0
scalar RSUExampleScenario.node[271].veinsmobility maxSpeed 14.542236271921
scalar RSUExampleScenario.node[271].veinsmobility totalDistance 2207.9496125138
scalar RSUExampleScenario.node[271].veinsmobility totalCO2Emission 612.47789169061
scalar RSUExampleScenario.node[9].appl generatedWSMs 311
scalar RSUExampleScenario.node[9].appl receivedWSMs 532
scalar RSUExampleScenario.node[9].appl generatedBSMs 0
scalar RSUExampleScenario.node[9].appl receivedBSMs 0
scalar RSUExampleScenario.node[9].appl generatedWSAs 0
scalar RSUExampleScenario.node[9].appl receivedWSAs 0
scalar RSUExampleScenario.node[9].nic.phy80211p busyTime 0.00052452173913044
scalar RSUExampleScenario.node[9].nic.mac1609_4 ReceivedUnicastPackets 0
scalar RSUExampleScenario.node[9].nic.mac1609_4 ReceivedBroadcasts 532
scalar RSUExampleScenario.node[9].nic.mac1609_4 SentPackets 310
scalar RSUExampleScenario.node[9].nic.mac1609_4 SentAcknowledgements 0
scalar RSUExampleScenario.node[9].nic.mac1609_4 SNIRLostPackets 137
scalar RSUExampleScenario.node[9].nic.mac1609_4 RXTXLostPackets 25
scalar RSUExampleScenario.node[9].nic.mac1609_4 TotalLostPackets 162
scalar RSUExampleScenario.node[9].nic.mac1609_4 DroppedPacketsInMac 0
scalar RSUExampleScenario.node[9].nic.mac1609_4 TooLittleTime 0
scalar RSUExampleScenario.node[9].nic.mac1609_4 TimesIntoBackoff 480
scalar RSUExampleScenario.node[9].nic.mac1609_4 SlotsBackoff 438
scalar RSUExampleScenario.node[9].nic.mac1609_4 NumInternalContention 0
scalar RSUExampleScenario.node[9].nic.mac1609_4 totalBusyTime 0.211915385184
scalar RSUExampleScenario.node[9].veinsmobility startTime 2
scalar RSUExampleScenario.node[9].veinsmobility totalTime 298
scalar RSUExampleScenario.node[9].veinsmobility stopTime 301
scalar RSUExampleScenario.node[9].veinsmobility minSpeed 0
scalar RSUExampleScenario.node[9].veinsmobility maxSpeed 15.953677720187
scalar RSUExampleScenario.node[9].veinsmobility totalDistance 2548.30044038
scalar RSUExampleScenario.node[9].veinsmobility totalCO2Emission 748.52117330301
scalar RSUExampleScenario.node[127].appl generatedWSMs 275
scalar RSUExampleScenario.node[127].appl receivedWSMs 306
scalar RSUExampleScenario.node[127].appl generatedBSMs 0
scalar RSUExampleScenario.node[127].appl receivedBSMs 0
scalar RSUExampleScenario.node[127].appl generatedWSAs 0
scalar RSUExampleScenario.node[127].appl receivedWSAs 0
scalar RSUExampleScenario.node[127].nic.phy80211p busyTime 0.00028261818181818
scalar RSUExampleScenario.node[127].nic.mac1609_4 ReceivedUnicastPackets 0
scalar RSUExampleScenario.node[127].nic.mac1609_4 ReceivedBroadcasts 306
scalar RSUExampleScenario.node[127].nic.mac1609_4 SentPackets 274
scalar RSUExampleScenario.node[127].nic.mac1609_4 SentAcknowledgements 0
scalar RSUExampleScenario.node[127].nic.mac1609_4 SNIRLostPackets 28
scalar RSUExampleScenario.node[127].nic.mac1609_4 RXTXLostPackets 4
scalar RSUExampleScenario.node[127].nic.mac1609_4 TotalLostPackets 32
scalar RSUExampleScenario.node[127].nic.mac1609_4 DroppedPacketsInMac 0
scalar RSUExampleScenario.node[127].nic.mac1609_4 TooLittleTime 0
scalar RSUExampleScenario.node[127].nic.mac1609_4 TimesIntoBackoff 426
scalar RSUExampleScenario.node[127].nic.mac1609_4 SlotsBackoff 391
scalar RSUExampleScenario.node[127].nic.mac1609_4 NumInternalContention 0
scalar RSUExampleScenario.node[127].nic.mac1609_4 totalBusyTime 0.13785
scalar RSUExampleScenario.node[127].veinsmobility startTime 26
scalar RSUExampleScenario.node[127].veinsmobility totalTime 274
scalar RSUExampleScenario.node[127].veinsmobility stopTime 301
scalar RSUExampleScenario.node[127].veinsmobility minSpeed 0
scalar RSUExampleScenario.node[127].veinsmobility maxSpeed 13.482315443487
scalar RSUExampleScenario.node[127].veinsmobility totalDistance 2868.4635996717
scalar RSUExampleScenario.node[127].veinsmobility totalCO2Emission 641.6900036866
scalar RSUExampleScenario.node[684].appl generatedWSMs 354
scalar RSUExampleScenario.node[684].appl receivedWSMs 858
scalar RSUExampleScenario.node[684].appl generatedBSMs 0
scalar RSUExampleScenario.node[684].appl receivedBSMs 0
scalar RSUExampleScenario.node[684].appl generatedWSAs 0
scalar RSUExampleScenario.node[684].appl receivedWSAs 0
scalar RSUExampleScenario.node[684].nic.phy80211p busyTime 0.001611268292683
scalar RSUExampleScenario.node[684].nic.mac1609_4 ReceivedUnicastPackets 0
scalar RSUExampleScenario.node[684].nic.mac1609_4 ReceivedBroadcasts 858
scalar RSUExampleScenario.node[684].nic.mac1609_4 SentPackets 353
scalar RSUExampleScenario.node[684].nic.mac1609_4 SentAcknowledgements 0
scalar RSUExampleScenario.node[684].nic.mac1609_4 SNIRLostPackets 279
scalar RSUExampleScenario.node[684].nic.mac1609_4 RXTXLostPackets 125
scalar RSUExampleScenario.node[684].nic.mac1609_4 TotalLostPackets 404
scalar RSUExampleScenario.node[684].nic.mac1609_4 DroppedPacketsInMac 0
scalar RSUExampleScenario.node[684].nic.mac1609_4 TooLittleTime 8
scalar RSUExampleScenario.node[684].nic.mac1609_4 TimesIntoBackoff 480
scalar RSUExampleScenario.node[684].nic.mac1609_4 SlotsBackoff 575
scalar RSUExampleScenario.node[684].nic.mac1609_4 NumInternalContention 0
scalar RSUExampleScenario.node[684].nic.mac1609_4 totalBusyTime 0.304703639584
scalar RSUExampleScenario.node[684].veinsmobility startTime 139
scalar RSUExampleScenario.node[684].veinsmobility totalTime 163
scalar RSUExampleScenario.node[684].veinsmobility stopTime 303
scalar RSUExampleScenario.node[684].veinsmobility minSpeed 0
scalar RSUExampleScenario.node[684].veinsmobility maxSpeed 13.418861741054
scalar RSUExampleScenario.node[684].veinsmobility totalDistance 1227.0531463941
scalar RSUExampleScenario.node[684].veinsmobility totalCO2Emission 356.86929794811
scalar RSUExampleScenario.node[208].appl generatedWSMs 271
scalar RSUExampleScenario.node[208].appl receivedWSMs 805
scalar RSUExampleScenario.node[208].appl generatedBSMs 0
scalar RSUExampleScenario.node[208].appl receivedBSMs 0
scalar RSUExampleScenario.node[208].appl generatedWSAs 0
scalar RSUExampleScenario.node[208].appl receivedWSAs 0
scalar RSUExampleScenario.node[208].nic.phy80211p busyTime 0.00095111111111113
scalar RSUExampleScenario.node[208].nic.mac1609_4 ReceivedUnicastPackets 0
scalar RSUExampleScenario.node[208].nic.mac1609_4 ReceivedBroadcasts 805
scalar RSUExampleScenario.node[208].nic.mac1609_4 SentPackets 270
scalar RSUExampleScenario.node[208].nic.mac1609_4 SentAcknowledgements 0
scalar RSUExampleScenario.node[208].nic.mac1609_4 SNIRLostPackets 237
scalar RSUExampleScenario.node[208].nic.mac1609_4 RXTXLostPackets 68
scalar RSUExampleScenario.node[208].nic.mac1609_4 TotalLostPackets 305
scalar RSUExampleScenario.node[208].nic.mac1609_4 DroppedPacketsInMac 0
scalar RSUExampleScenario.node[208].nic.mac1609_4 TooLittleTime 0
scalar RSUExampleScenario.node[208].nic.mac1609_4 TimesIntoBackoff 408
scalar RSUExampleScenario.node[208].nic.mac1609_4 SlotsBackoff 376
scalar RSUExampleScenario.node[208].nic.mac1609_4 NumInternalContention 0
scalar RSUExampleScenario.node[208].nic.mac1609_4 totalBusyTime 0.277828075343
scalar RSUExampleScenario.node[208].veinsmobility startTime 44
scalar RSUExampleScenario.node[208].veinsmobility totalTime 260
scalar RSUExampleScenario.node[208].veinsmobility stopTime 305
scalar RSUExampleScenario.node[208].veinsmobility minSpeed 0
scalar RSUExampleScenario.node[208].veinsmobility maxSpeed 13.464288148338
scalar RSUExampleScenario.node[208].veinsmobility totalDistance 1933.9744447256
scalar RSUExampleScenario.node[208].veinsmobility totalCO2Emission 595.06723037103
scalar RSUExampleScenario.node[577].appl generatedWSMs 193
scalar RSUExampleScenario.node[577].appl receivedWSMs 472
scalar RSUExampleScenario.node[577].appl generatedBSMs 0
scalar RSUExampleScenario.node[577].appl receivedBSMs 0
scalar RSUExampleScenario.node[577].appl generatedWSAs 0
scalar RSUExampleScenario.node[577].appl receivedWSAs 0
scalar RSUExampleScenario.node[577].nic.phy80211p busyTime 0.00070080829015544
scalar RSUExampleScenario.node[577].nic.mac1609_4 ReceivedUnicastPackets 0
scalar RSUExampleScenario.node[577].nic.mac1609_4 ReceivedBroadcasts 472
scalar RSUExampleScenario.node[577].nic.mac1609_4 SentPackets 192
scalar RSUExampleScenario.node[577].nic.mac1609_4 SentAcknowledgements 0
scalar RSUExampleScenario.node[577].nic.mac1609_4 SNIRLostPackets 101
scalar RSUExampleScenario.node[577].nic.mac1609_4 RXTXLostPackets 32
scalar RSUExampleScenario.node[577].nic.mac1609_4 TotalLostPackets 133
scalar RSUExampleScenario.node[577].nic.mac1609_4 DroppedPacketsInMac 0
scalar RSUExampleScenario.node[577].nic.mac1609_4 TooLittleTime 0
scalar RSUExampleScenario.node[577].nic.mac1609_4 TimesIntoBackoff 302
scalar RSUExampleScenario.node[577].nic.mac1609_4 SlotsBackoff 293
scalar RSUExampleScenario.node[577].nic.mac1609_4 NumInternalContention 0
scalar RSUExampleScenario.node[577].nic.mac1609_4 totalBusyTime 0.166243144258
scalar RSUExampleScenario.node[577].veinsmobility startTime 118
scalar RSUExampleScenario.node[577].veinsmobility totalTime 192
scalar RSUExampleScenario.node[577].veinsmobility stopTime 311
scalar RSUExampleScenario.node[577].veinsmobility minSpeed 0
scalar RSUExampleScenario.node[577].veinsmobility maxSpeed 13.270632670533
scalar RSUExampleScenario.node[577].veinsmobility totalDistance 1760.1224507234
scalar RSUExampleScenario.node[577].veinsmobility totalCO2Emission 478.25371092721
scalar RSUExampleScenario.node[245].appl generatedWSMs 267
scalar RSUExampleScenario.node[245].appl receivedWSMs 750
[...]
scalar RSUExampleScenario.node[644].nic.mac1609_4 SentAcknowledgements 0
scalar RSUExampleScenario.node[644].nic.mac1609_4 SNIRLostPackets 545
scalar RSUExampleScenario.node[644].nic.mac1609_4 RXTXLostPackets 196
scalar RSUExampleScenario.node[644].nic.mac1609_4 TotalLostPackets 741
scalar RSUExampleScenario.node[644].nic.mac1609_4 DroppedPacketsInMac 0
scalar RSUExampleScenario.node[644].nic.mac1609_4 TooLittleTime 0
scalar RSUExampleScenario.node[644].nic.mac1609_4 TimesIntoBackoff 1427
scalar RSUExampleScenario.node[644].nic.mac1609_4 SlotsBackoff 1434
scalar RSUExampleScenario.node[644].nic.mac1609_4 NumInternalContention 0
scalar RSUExampleScenario.node[644].nic.mac1609_4 totalBusyTime 0.876811149075
scalar RSUExampleScenario.node[644].veinsmobility startTime 131
scalar RSUExampleScenario.node[644].veinsmobility totalTime 869
scalar RSUExampleScenario.node[644].veinsmobility stopTime 1000
scalar RSUExampleScenario.node[644].veinsmobility minSpeed 0
scalar RSUExampleScenario.node[644].veinsmobility maxSpeed 30.863380424954
scalar RSUExampleScenario.node[644].veinsmobility totalDistance 13965.389105522
scalar RSUExampleScenario.node[644].veinsmobility totalCO2Emission 2786.5291342611
scalar RSUExampleScenario.node[866].appl generatedWSMs 1029
scalar RSUExampleScenario.node[866].appl receivedWSMs 3292
scalar RSUExampleScenario.node[866].appl generatedBSMs 0
scalar RSUExampleScenario.node[866].appl receivedBSMs 0
scalar RSUExampleScenario.node[866].appl generatedWSAs 0
scalar RSUExampleScenario.node[866].appl receivedWSAs 0
scalar RSUExampleScenario.node[866].nic.phy80211p busyTime 0.0012744570737606
scalar RSUExampleScenario.node[866].nic.mac1609_4 ReceivedUnicastPackets 0
scalar RSUExampleScenario.node[866].nic.mac1609_4 ReceivedBroadcasts 3292
scalar RSUExampleScenario.node[866].nic.mac1609_4 SentPackets 1028
scalar RSUExampleScenario.node[866].nic.mac1609_4 SentAcknowledgements 0
scalar RSUExampleScenario.node[866].nic.mac1609_4 SNIRLostPackets 1148
scalar RSUExampleScenario.node[866].nic.mac1609_4 RXTXLostPackets 346
scalar RSUExampleScenario.node[866].nic.mac1609_4 TotalLostPackets 1494
scalar RSUExampleScenario.node[866].nic.mac1609_4 DroppedPacketsInMac 0
scalar RSUExampleScenario.node[866].nic.mac1609_4 TooLittleTime 0
scalar RSUExampleScenario.node[866].nic.mac1609_4 TimesIntoBackoff 1519
scalar RSUExampleScenario.node[866].nic.mac1609_4 SlotsBackoff 1534
scalar RSUExampleScenario.node[866].nic.mac1609_4 NumInternalContention 0
scalar RSUExampleScenario.node[866].nic.mac1609_4 totalBusyTime 1.12794579869
scalar RSUExampleScenario.node[866].veinsmobility startTime 173
scalar RSUExampleScenario.node[866].veinsmobility totalTime 827
scalar RSUExampleScenario.node[866].veinsmobility stopTime 1000
scalar RSUExampleScenario.node[866].veinsmobility minSpeed 0
scalar RSUExampleScenario.node[866].veinsmobility maxSpeed 14.826515760219
scalar RSUExampleScenario.node[866].veinsmobility totalDistance 6390.2752966375
scalar RSUExampleScenario.node[866].veinsmobility totalCO2Emission 1843.3448504792
scalar RSUExampleScenario.node[875].appl generatedWSMs 1548
scalar RSUExampleScenario.node[875].appl receivedWSMs 4448
scalar RSUExampleScenario.node[875].appl generatedBSMs 0
scalar RSUExampleScenario.node[875].appl receivedBSMs 0
scalar RSUExampleScenario.node[875].appl generatedWSAs 0
scalar RSUExampleScenario.node[875].appl receivedWSAs 0
scalar RSUExampleScenario.node[875].nic.phy80211p busyTime 0.0020514424242425
scalar RSUExampleScenario.node[875].nic.mac1609_4 ReceivedUnicastPackets 0
scalar RSUExampleScenario.node[875].nic.mac1609_4 ReceivedBroadcasts 4448
scalar RSUExampleScenario.node[875].nic.mac1609_4 SentPackets 1547
scalar RSUExampleScenario.node[875].nic.mac1609_4 SentAcknowledgements 0
scalar RSUExampleScenario.node[875].nic.mac1609_4 SNIRLostPackets 2707
scalar RSUExampleScenario.node[875].nic.mac1609_4 RXTXLostPackets 1254
scalar RSUExampleScenario.node[875].nic.mac1609_4 TotalLostPackets 3961
scalar RSUExampleScenario.node[875].nic.mac1609_4 DroppedPacketsInMac 0
scalar RSUExampleScenario.node[875].nic.mac1609_4 TooLittleTime 9
scalar RSUExampleScenario.node[875].nic.mac1609_4 TimesIntoBackoff 2129
scalar RSUExampleScenario.node[875].nic.mac1609_4 SlotsBackoff 2418
scalar RSUExampleScenario.node[875].nic.mac1609_4 NumInternalContention 0
scalar RSUExampleScenario.node[875].nic.mac1609_4 totalBusyTime 1.595456542949
scalar RSUExampleScenario.node[875].veinsmobility startTime 175
scalar RSUExampleScenario.node[875].veinsmobility totalTime 825
scalar RSUExampleScenario.node[875].veinsmobility stopTime 1000
scalar RSUExampleScenario.node[875].veinsmobility minSpeed 0
scalar RSUExampleScenario.node[875].veinsmobility maxSpeed 13.715130727729
scalar RSUExampleScenario.node[875].veinsmobility totalDistance 7779.7810885567
scalar RSUExampleScenario.node[875].veinsmobility totalCO2Emission 1908.2730128531
scalar RSUExampleScenario.node[673].appl generatedWSMs 947
scalar RSUExampleScenario.node[673].appl receivedWSMs 3633
scalar RSUExampleScenario.node[673].appl generatedBSMs 0
scalar RSUExampleScenario.node[673].appl receivedBSMs 0
scalar RSUExampleScenario.node[673].appl generatedWSAs 0
scalar RSUExampleScenario.node[673].appl receivedWSAs 0
scalar RSUExampleScenario.node[673].nic.phy80211p busyTime 0.0013825909617613
scalar RSUExampleScenario.node[673].nic.mac1609_4 ReceivedUnicastPackets 0
scalar RSUExampleScenario.node[673].nic.mac1609_4 ReceivedBroadcasts 3633
scalar RSUExampleScenario.node[673].nic.mac1609_4 SentPackets 946
scalar RSUExampleScenario.node[673].nic.mac1609_4 SentAcknowledgements 0
scalar RSUExampleScenario.node[673].nic.mac1609_4 SNIRLostPackets 1453
scalar RSUExampleScenario.node[673].nic.mac1609_4 RXTXLostPackets 343
scalar RSUExampleScenario.node[673].nic.mac1609_4 TotalLostPackets 1796
scalar RSUExampleScenario.node[673].nic.mac1609_4 DroppedPacketsInMac 0
scalar RSUExampleScenario.node[673].nic.mac1609_4 TooLittleTime 0
scalar RSUExampleScenario.node[673].nic.mac1609_4 TimesIntoBackoff 1447
scalar RSUExampleScenario.node[673].nic.mac1609_4 SlotsBackoff 1448
scalar RSUExampleScenario.node[673].nic.mac1609_4 NumInternalContention 0
scalar RSUExampleScenario.node[673].nic.mac1609_4 totalBusyTime 1.19430862309
scalar RSUExampleScenario.node[673].veinsmobility startTime 137
scalar RSUExampleScenario.node[673].veinsmobility totalTime 863
scalar RSUExampleScenario.node[673].veinsmobility stopTime 1000
scalar RSUExampleScenario.node[673].veinsmobility minSpeed 0
scalar RSUExampleScenario.node[673].veinsmobility maxSpeed 27.124761932249
scalar RSUExampleScenario.node[673].veinsmobility totalDistance 14236.946738942
scalar RSUExampleScenario.node[673].veinsmobility totalCO2Emission 2692.8714538674
scalar RSUExampleScenario.node[681].appl generatedWSMs 862
scalar RSUExampleScenario.node[681].appl receivedWSMs 2056
scalar RSUExampleScenario.node[681].appl generatedBSMs 0
scalar RSUExampleScenario.node[681].appl receivedBSMs 0
scalar RSUExampleScenario.node[681].appl generatedWSAs 0
scalar RSUExampleScenario.node[681].appl receivedWSAs 0
scalar RSUExampleScenario.node[681].nic.phy80211p busyTime 0.00064405568445478
scalar RSUExampleScenario.node[681].nic.mac1609_4 ReceivedUnicastPackets 0
scalar RSUExampleScenario.node[681].nic.mac1609_4 ReceivedBroadcasts 2056
scalar RSUExampleScenario.node[681].nic.mac1609_4 SentPackets 861
scalar RSUExampleScenario.node[681].nic.mac1609_4 SentAcknowledgements 0
scalar RSUExampleScenario.node[681].nic.mac1609_4 SNIRLostPackets 319
scalar RSUExampleScenario.node[681].nic.mac1609_4 RXTXLostPackets 93
scalar RSUExampleScenario.node[681].nic.mac1609_4 TotalLostPackets 412
scalar RSUExampleScenario.node[681].nic.mac1609_4 DroppedPacketsInMac 0
scalar RSUExampleScenario.node[681].nic.mac1609_4 TooLittleTime 0
scalar RSUExampleScenario.node[681].nic.mac1609_4 TimesIntoBackoff 1340
scalar RSUExampleScenario.node[681].nic.mac1609_4 SlotsBackoff 1315
scalar RSUExampleScenario.node[681].nic.mac1609_4 NumInternalContention 0
scalar RSUExampleScenario.node[681].nic.mac1609_4 totalBusyTime 0.711376372863
scalar RSUExampleScenario.node[681].veinsmobility startTime 138
scalar RSUExampleScenario.node[681].veinsmobility totalTime 862
scalar RSUExampleScenario.node[681].veinsmobility stopTime 1000
scalar RSUExampleScenario.node[681].veinsmobility minSpeed 2.2404240099248
scalar RSUExampleScenario.node[681].veinsmobility maxSpeed 55.405376671027
scalar RSUExampleScenario.node[681].veinsmobility totalDistance 19932.039319858
scalar RSUExampleScenario.node[681].veinsmobility totalCO2Emission 5101.6905745567
scalar RSUExampleScenario.node[852].appl generatedWSMs 829
scalar RSUExampleScenario.node[852].appl receivedWSMs 925
scalar RSUExampleScenario.node[852].appl generatedBSMs 0
scalar RSUExampleScenario.node[852].appl receivedBSMs 0
scalar RSUExampleScenario.node[852].appl generatedWSAs 0
scalar RSUExampleScenario.node[852].appl receivedWSAs 0
scalar RSUExampleScenario.node[852].nic.phy80211p busyTime 0.0002776164053076
scalar RSUExampleScenario.node[852].nic.mac1609_4 ReceivedUnicastPackets 0
scalar RSUExampleScenario.node[852].nic.mac1609_4 ReceivedBroadcasts 925
scalar RSUExampleScenario.node[852].nic.mac1609_4 SentPackets 828
scalar RSUExampleScenario.node[852].nic.mac1609_4 SentAcknowledgements 0
scalar RSUExampleScenario.node[852].nic.mac1609_4 SNIRLostPackets 59
scalar RSUExampleScenario.node[852].nic.mac1609_4 RXTXLostPackets 39
scalar RSUExampleScenario.node[852].nic.mac1609_4 TotalLostPackets 98
scalar RSUExampleScenario.node[852].nic.mac1609_4 DroppedPacketsInMac 0
scalar RSUExampleScenario.node[852].nic.mac1609_4 TooLittleTime 0
scalar RSUExampleScenario.node[852].nic.mac1609_4 TimesIntoBackoff 1282
scalar RSUExampleScenario.node[852].nic.mac1609_4 SlotsBackoff 1273
scalar RSUExampleScenario.node[852].nic.mac1609_4 NumInternalContention 0
scalar RSUExampleScenario.node[852].nic.mac1609_4 totalBusyTime 0.414948026792
scalar RSUExampleScenario.node[852].veinsmobility startTime 171
scalar RSUExampleScenario.node[852].veinsmobility totalTime 829
scalar RSUExampleScenario.node[852].veinsmobility stopTime 1000
scalar RSUExampleScenario.node[852].veinsmobility minSpeed 0
scalar RSUExampleScenario.node[852].veinsmobility maxSpeed 19.950550048951
scalar RSUExampleScenario.node[852].veinsmobility totalDistance 9553.5338333616
scalar RSUExampleScenario.node[852].veinsmobility totalCO2Emission 2129.2751654154
scalar RSUExampleScenario.node[624].appl generatedWSMs 1837
scalar RSUExampleScenario.node[624].appl receivedWSMs 6976
scalar RSUExampleScenario.node[624].appl generatedBSMs 0
scalar RSUExampleScenario.node[624].appl receivedBSMs 0
scalar RSUExampleScenario.node[624].appl generatedWSAs 0
scalar RSUExampleScenario.node[624].appl receivedWSAs 0
scalar RSUExampleScenario.node[624].nic.phy80211p busyTime 0.0027773562428409
scalar RSUExampleScenario.node[624].nic.mac1609_4 ReceivedUnicastPackets 0
scalar RSUExampleScenario.node[624].nic.mac1609_4 ReceivedBroadcasts 6976
scalar RSUExampleScenario.node[624].nic.mac1609_4 SentPackets 1836
scalar RSUExampleScenario.node[624].nic.mac1609_4 SentAcknowledgements 0
scalar RSUExampleScenario.node[624].nic.mac1609_4 SNIRLostPackets 3323
scalar RSUExampleScenario.node[624].nic.mac1609_4 RXTXLostPackets 1425
scalar RSUExampleScenario.node[624].nic.mac1609_4 TotalLostPackets 4748
scalar RSUExampleScenario.node[624].nic.mac1609_4 DroppedPacketsInMac 0
scalar RSUExampleScenario.node[624].nic.mac1609_4 TooLittleTime 9
scalar RSUExampleScenario.node[624].nic.mac1609_4 TimesIntoBackoff 2497
scalar RSUExampleScenario.node[624].nic.mac1609_4 SlotsBackoff 2850
scalar RSUExampleScenario.node[624].nic.mac1609_4 NumInternalContention 0
scalar RSUExampleScenario.node[624].nic.mac1609_4 totalBusyTime 2.331492334802
scalar RSUExampleScenario.node[624].veinsmobility startTime 127
scalar RSUExampleScenario.node[624].veinsmobility totalTime 873
scalar RSUExampleScenario.node[624].veinsmobility stopTime 1000
scalar RSUExampleScenario.node[624].veinsmobility minSpeed 0
scalar RSUExampleScenario.node[624].veinsmobility maxSpeed 32.389971105413
scalar RSUExampleScenario.node[624].veinsmobility totalDistance 13816.159915335
scalar RSUExampleScenario.node[624].veinsmobility totalCO2Emission 2761.8345826154
scalar RSUExampleScenario.manager roiArea 0
scalar RSUExampleScenario.rsu[0].appl generatedWSMs 20
scalar RSUExampleScenario.rsu[0].appl receivedWSMs 1140
scalar RSUExampleScenario.rsu[0].appl generatedBSMs 0
scalar RSUExampleScenario.rsu[0].appl receivedBSMs 0
scalar RSUExampleScenario.rsu[0].appl generatedWSAs 0
scalar RSUExampleScenario.rsu[0].appl receivedWSAs 0
scalar RSUExampleScenario.rsu[0].nic.phy80211p busyTime 0.00029348000000001
scalar RSUExampleScenario.rsu[0].nic.mac1609_4 ReceivedUnicastPackets 0
scalar RSUExampleScenario.rsu[0].nic.mac1609_4 ReceivedBroadcasts 1140
scalar RSUExampleScenario.rsu[0].nic.mac1609_4 SentPackets 20
scalar RSUExampleScenario.rsu[0].nic.mac1609_4 SentAcknowledgements 0
scalar RSUExampleScenario.rsu[0].nic.mac1609_4 SNIRLostPackets 125
scalar RSUExampleScenario.rsu[0].nic.mac1609_4 RXTXLostPackets 0
scalar RSUExampleScenario.rsu[0].nic.mac1609_4 TotalLostPackets 125
scalar RSUExampleScenario.rsu[0].nic.mac1609_4 DroppedPacketsInMac 0
scalar RSUExampleScenario.rsu[0].nic.mac1609_4 TooLittleTime 0
scalar RSUExampleScenario.rsu[0].nic.mac1609_4 TimesIntoBackoff 29
scalar RSUExampleScenario.rsu[0].nic.mac1609_4 SlotsBackoff 79
scalar RSUExampleScenario.rsu[0].nic.mac1609_4 NumInternalContention 0
scalar RSUExampleScenario.rsu[0].nic.mac1609_4 totalBusyTime 0.281668
scalar RSUExampleScenario.rsu[1].appl generatedWSMs 20
scalar RSUExampleScenario.rsu[1].appl receivedWSMs 7577
scalar RSUExampleScenario.rsu[1].appl generatedBSMs 0
scalar RSUExampleScenario.rsu[1].appl receivedBSMs 0
scalar RSUExampleScenario.rsu[1].appl generatedWSAs 0
scalar RSUExampleScenario.rsu[1].appl receivedWSAs 0
scalar RSUExampleScenario.rsu[1].nic.phy80211p busyTime 0.0025494480000001
scalar RSUExampleScenario.rsu[1].nic.mac1609_4 ReceivedUnicastPackets 0
scalar RSUExampleScenario.rsu[1].nic.mac1609_4 ReceivedBroadcasts 7577
scalar RSUExampleScenario.rsu[1].nic.mac1609_4 SentPackets 20
scalar RSUExampleScenario.rsu[1].nic.mac1609_4 SentAcknowledgements 0
scalar RSUExampleScenario.rsu[1].nic.mac1609_4 SNIRLostPackets 3412
scalar RSUExampleScenario.rsu[1].nic.mac1609_4 RXTXLostPackets 0
scalar RSUExampleScenario.rsu[1].nic.mac1609_4 TotalLostPackets 3412
scalar RSUExampleScenario.rsu[1].nic.mac1609_4 DroppedPacketsInMac 0
scalar RSUExampleScenario.rsu[1].nic.mac1609_4 TooLittleTime 0
scalar RSUExampleScenario.rsu[1].nic.mac1609_4 TimesIntoBackoff 30
scalar RSUExampleScenario.rsu[1].nic.mac1609_4 SlotsBackoff 63
scalar RSUExampleScenario.rsu[1].nic.mac1609_4 NumInternalContention 0
scalar RSUExampleScenario.rsu[1].nic.mac1609_4 totalBusyTime 2.08157721345
scalar RSUExampleScenario.rsu[2].appl generatedWSMs 20
scalar RSUExampleScenario.rsu[2].appl receivedWSMs 8985
scalar RSUExampleScenario.rsu[2].appl generatedBSMs 0
scalar RSUExampleScenario.rsu[2].appl receivedBSMs 0
scalar RSUExampleScenario.rsu[2].appl generatedWSAs 0
scalar RSUExampleScenario.rsu[2].appl receivedWSAs 0
scalar RSUExampleScenario.rsu[2].nic.phy80211p busyTime 0.0033656240000001
scalar RSUExampleScenario.rsu[2].nic.mac1609_4 ReceivedUnicastPackets 0
scalar RSUExampleScenario.rsu[2].nic.mac1609_4 ReceivedBroadcasts 8985
scalar RSUExampleScenario.rsu[2].nic.mac1609_4 SentPackets 20
scalar RSUExampleScenario.rsu[2].nic.mac1609_4 SentAcknowledgements 0
scalar RSUExampleScenario.rsu[2].nic.mac1609_4 SNIRLostPackets 5522
scalar RSUExampleScenario.rsu[2].nic.mac1609_4 RXTXLostPackets 0
scalar RSUExampleScenario.rsu[2].nic.mac1609_4 TotalLostPackets 5522
scalar RSUExampleScenario.rsu[2].nic.mac1609_4 DroppedPacketsInMac 0
scalar RSUExampleScenario.rsu[2].nic.mac1609_4 TooLittleTime 0
scalar RSUExampleScenario.rsu[2].nic.mac1609_4 TimesIntoBackoff 32
scalar RSUExampleScenario.rsu[2].nic.mac1609_4 SlotsBackoff 86
scalar RSUExampleScenario.rsu[2].nic.mac1609_4 NumInternalContention 0
scalar RSUExampleScenario.rsu[2].nic.mac1609_4 totalBusyTime 2.638422722553
scalar RSUExampleScenario.rsu[3].appl generatedWSMs 20
scalar RSUExampleScenario.rsu[3].appl receivedWSMs 455
scalar RSUExampleScenario.rsu[3].appl generatedBSMs 0
scalar RSUExampleScenario.rsu[3].appl receivedBSMs 0
scalar RSUExampleScenario.rsu[3].appl generatedWSAs 0
scalar RSUExampleScenario.rsu[3].appl receivedWSAs 0
scalar RSUExampleScenario.rsu[3].nic.phy80211p busyTime 0.000108344
scalar RSUExampleScenario.rsu[3].nic.mac1609_4 ReceivedUnicastPackets 0
scalar RSUExampleScenario.rsu[3].nic.mac1609_4 ReceivedBroadcasts 455
scalar RSUExampleScenario.rsu[3].nic.mac1609_4 SentPackets 20
scalar RSUExampleScenario.rsu[3].nic.mac1609_4 SentAcknowledgements 0
scalar RSUExampleScenario.rsu[3].nic.mac1609_4 SNIRLostPackets 12
scalar RSUExampleScenario.rsu[3].nic.mac1609_4 RXTXLostPackets 0
scalar RSUExampleScenario.rsu[3].nic.mac1609_4 TotalLostPackets 12
scalar RSUExampleScenario.rsu[3].nic.mac1609_4 DroppedPacketsInMac 0
scalar RSUExampleScenario.rsu[3].nic.mac1609_4 TooLittleTime 0
scalar RSUExampleScenario.rsu[3].nic.mac1609_4 TimesIntoBackoff 27
scalar RSUExampleScenario.rsu[3].nic.mac1609_4 SlotsBackoff 57
scalar RSUExampleScenario.rsu[3].nic.mac1609_4 NumInternalContention 0
scalar RSUExampleScenario.rsu[3].nic.mac1609_4 totalBusyTime 0.111612
scalar RSUExampleScenario.rsu[4].appl generatedWSMs 20
scalar RSUExampleScenario.rsu[4].appl receivedWSMs 999
scalar RSUExampleScenario.rsu[4].appl generatedBSMs 0
scalar RSUExampleScenario.rsu[4].appl receivedBSMs 0
scalar RSUExampleScenario.rsu[4].appl generatedWSAs 0
scalar RSUExampleScenario.rsu[4].appl receivedWSAs 0
scalar RSUExampleScenario.rsu[4].nic.phy80211p busyTime 0.000247776
scalar RSUExampleScenario.rsu[4].nic.mac1609_4 ReceivedUnicastPackets 0
scalar RSUExampleScenario.rsu[4].nic.mac1609_4 ReceivedBroadcasts 999
scalar RSUExampleScenario.rsu[4].nic.mac1609_4 SentPackets 20
scalar RSUExampleScenario.rsu[4].nic.mac1609_4 SentAcknowledgements 0
scalar RSUExampleScenario.rsu[4].nic.mac1609_4 SNIRLostPackets 69
scalar RSUExampleScenario.rsu[4].nic.mac1609_4 RXTXLostPackets 0
scalar RSUExampleScenario.rsu[4].nic.mac1609_4 TotalLostPackets 69
scalar RSUExampleScenario.rsu[4].nic.mac1609_4 DroppedPacketsInMac 0
scalar RSUExampleScenario.rsu[4].nic.mac1609_4 TooLittleTime 0
scalar RSUExampleScenario.rsu[4].nic.mac1609_4 TimesIntoBackoff 34
scalar RSUExampleScenario.rsu[4].nic.mac1609_4 SlotsBackoff 78
scalar RSUExampleScenario.rsu[4].nic.mac1609_4 NumInternalContention 0
scalar RSUExampleScenario.rsu[4].nic.mac1609_4 totalBusyTime 0.244084
scalar RSUExampleScenario.rsu[5].appl generatedWSMs 20
scalar RSUExampleScenario.rsu[5].appl receivedWSMs 287
scalar RSUExampleScenario.rsu[5].appl generatedBSMs 0
scalar RSUExampleScenario.rsu[5].appl receivedBSMs 0
scalar RSUExampleScenario.rsu[5].appl generatedWSAs 0
scalar RSUExampleScenario.rsu[5].appl receivedWSAs 0
scalar RSUExampleScenario.rsu[5].nic.phy80211p busyTime 6.7512e-05
scalar RSUExampleScenario.rsu[5].nic.mac1609_4 ReceivedUnicastPackets 0
scalar RSUExampleScenario.rsu[5].nic.mac1609_4 ReceivedBroadcasts 287
scalar RSUExampleScenario.rsu[5].nic.mac1609_4 SentPackets 20
scalar RSUExampleScenario.rsu[5].nic.mac1609_4 SentAcknowledgements 0
scalar RSUExampleScenario.rsu[5].nic.mac1609_4 SNIRLostPackets 4
scalar RSUExampleScenario.rsu[5].nic.mac1609_4 RXTXLostPackets 0
scalar RSUExampleScenario.rsu[5].nic.mac1609_4 TotalLostPackets 4
scalar RSUExampleScenario.rsu[5].nic.mac1609_4 DroppedPacketsInMac 0
scalar RSUExampleScenario.rsu[5].nic.mac1609_4 TooLittleTime 0
scalar RSUExampleScenario.rsu[5].nic.mac1609_4 TimesIntoBackoff 31
scalar RSUExampleScenario.rsu[5].nic.mac1609_4 SlotsBackoff 51
scalar RSUExampleScenario.rsu[5].nic.mac1609_4 NumInternalContention 0
scalar RSUExampleScenario.rsu[5].nic.mac1609_4 totalBusyTime 0.071708

